# Produced with molli package
@<TRIPOS>MOLECULE
A_10_K
46 49 0 0 0
SMALL
USER_CHARGES

@<TRIPOS>ATOM
     1 C      -5.119202     4.207071    -1.061282 C          1 UNL1 0.000
     2 C      -5.723746     3.052377    -1.548911 C          1 UNL1 0.000
     3 C      -5.078300     1.814908    -1.433468 C          1 UNL1 0.000
     4 C      -3.828943     1.697305    -0.800323 C          1 UNL1 0.000
     5 C      -3.230193     2.888314    -0.338675 C          1 UNL1 0.000
     6 C      -3.866230     4.127342    -0.465462 C          1 UNL1 0.000
     7 N      -3.156332     0.423248    -0.653474 N          1 UNL1 0.000
     8 C      -3.843538    -0.844422    -0.518905 C          1 UNL1 0.000
     9 C      -5.136756    -0.940981     0.024465 C          1 UNL1 0.000
    10 C      -5.797826    -2.171649     0.124495 C          1 UNL1 0.000
    11 C      -5.166928    -3.341689    -0.285912 C          1 UNL1 0.000
    12 C      -3.872885    -3.283373    -0.789008 C          1 UNL1 0.000
    13 C      -3.221088    -2.050856    -0.902656 C          1 UNL1 0.000
    14 C      -1.718481     0.421166    -0.649527 C          1 UNL1 0.000
    15 C      -1.009650     0.518039    -1.852272 C          1 UNL1 0.000
    16 C       0.377721     0.513991    -1.828371 C          1 UNL1 0.000
    17 C       1.078294     0.452099    -0.627488 C          1 UNL1 0.000
    18 C       0.387371     0.382264     0.589570 C          1 UNL1 0.000
    19 C      -1.015009     0.341049     0.565123 C          1 UNL1 0.000
    20 F       1.056666     0.579605    -2.981141 F          1 UNL1 0.000
    21 H      -5.618787     5.167823    -1.153482 H          1 UNL1 0.000
    22 H      -6.697628     3.111873    -2.028048 H          1 UNL1 0.000
    23 H      -5.563949     0.943468    -1.864729 H          1 UNL1 0.000
    24 H      -2.257999     2.870537     0.145875 H          1 UNL1 0.000
    25 H      -3.379771     5.025744    -0.094283 H          1 UNL1 0.000
    26 H      -5.649507    -0.057712     0.395821 H          1 UNL1 0.000
    27 H      -6.805415    -2.212889     0.530296 H          1 UNL1 0.000
    28 H      -5.678759    -4.297074    -0.206392 H          1 UNL1 0.000
    29 H      -3.366285    -4.193516    -1.099849 H          1 UNL1 0.000
    30 H      -2.215990    -2.052667    -1.315580 H          1 UNL1 0.000
    31 H      -1.533760     0.579204    -2.800587 H          1 UNL1 0.000
    32 H       2.164430     0.474736    -0.651698 H          1 UNL1 0.000
    33 H      -1.576035     0.282725     1.496641 H          1 UNL1 0.000
    34 C       1.112315     0.401047     1.860763 C          1 UNL1 0.000
    35 C       1.343476     1.621843     2.520713 C          1 UNL1 0.000
    36 C       2.048140     1.663088     3.725460 C          1 UNL1 0.000
    37 C       2.515716     0.467420     4.277766 C          1 UNL1 0.000
    38 C       2.291306    -0.760192     3.646562 C          1 UNL1 0.000
    39 C       1.592990    -0.786374     2.436149 C          1 UNL1 0.000
    40 N       3.255204     0.503846     5.534410 N          1 UNL1 0.000
    41 O       3.086882    -0.439130     6.321517 O          1 UNL1 0.000
    42 O       4.000384     1.472756     5.729323 O          1 UNL1 0.000
    43 H       0.974900     2.551764     2.089275 H          1 UNL1 0.000
    44 H       2.220112     2.617749     4.217632 H          1 UNL1 0.000
    45 H       2.656990    -1.689558     4.077878 H          1 UNL1 0.000
    46 H       1.422689    -1.740264     1.939200 H          1 UNL1 0.000
@<TRIPOS>BOND
     1      1      2   2
     2      2      3   1
     3      3      4   2
     4      4      5   1
     5      5      6   2
     6      6      1   1
     7      4      7   1
     8      7      8   1
     9      8      9   2
    10      9     10   1
    11     10     11   2
    12     11     12   1
    13     12     13   2
    14     13      8   1
    15     14     15   2
    16     15     16   1
    17     16     17   2
    18     17     18   1
    19     18     19   2
    20     19     14   1
    21     16     20   1
    22      7     14   1
    23      1     21   1
    24      2     22   1
    25      3     23   1
    26      5     24   1
    27      6     25   1
    28      9     26   1
    29     10     27   1
    30     11     28   1
    31     12     29   1
    32     13     30   1
    33     15     31   1
    34     17     32   1
    35     19     33   1
    36     34     35   2
    37     35     36   1
    38     36     37   2
    39     37     38   1
    40     38     39   2
    41     39     34   1
    42     40     41   2
    43     40     42   1
    44     37     40   1
    45     35     43   1
    46     36     44   1
    47     38     45   1
    48     39     46   1
    49     18     34   1
