# Produced with molli package
@<TRIPOS>MOLECULE
A_10_P
48 51 0 0 0
SMALL
USER_CHARGES

@<TRIPOS>ATOM
     1 C      -5.123927     4.346047    -0.427790 C          1 UNL1 0.000
     2 C      -5.736158     3.199067     0.068449 C          1 UNL1 0.000
     3 C      -5.084633     1.962923    -0.011506 C          1 UNL1 0.000
     4 C      -3.818251     1.840923    -0.610461 C          1 UNL1 0.000
     5 C      -3.211246     3.022378    -1.080907 C          1 UNL1 0.000
     6 C      -3.857001     4.259907    -0.994512 C          1 UNL1 0.000
     7 N      -3.149296     0.564736    -0.724394 N          1 UNL1 0.000
     8 C      -3.850177    -0.691686    -0.879225 C          1 UNL1 0.000
     9 C      -5.089260    -0.776186    -1.537697 C          1 UNL1 0.000
    10 C      -5.757189    -1.998522    -1.676246 C          1 UNL1 0.000
    11 C      -5.189338    -3.167763    -1.178508 C          1 UNL1 0.000
    12 C      -3.952183    -3.117359    -0.546118 C          1 UNL1 0.000
    13 C      -3.291154    -1.893968    -0.399855 C          1 UNL1 0.000
    14 C      -1.712131     0.539124    -0.721711 C          1 UNL1 0.000
    15 C      -1.009086     0.332639    -1.914208 C          1 UNL1 0.000
    16 C       0.376781     0.284792    -1.889558 C          1 UNL1 0.000
    17 C       1.080888     0.400204    -0.695299 C          1 UNL1 0.000
    18 C       0.397772     0.585635     0.515404 C          1 UNL1 0.000
    19 C      -1.003017     0.682904     0.484017 C          1 UNL1 0.000
    20 F       1.050536     0.112501    -3.034785 F          1 UNL1 0.000
    21 H      -5.629995     5.305915    -0.367502 H          1 UNL1 0.000
    22 H      -6.721319     3.262901     0.523205 H          1 UNL1 0.000
    23 H      -5.578208     1.093525     0.415624 H          1 UNL1 0.000
    24 H      -2.229365     2.994602    -1.545874 H          1 UNL1 0.000
    25 H      -3.368335     5.152366    -1.376899 H          1 UNL1 0.000
    26 H      -5.545252     0.109872    -1.971782 H          1 UNL1 0.000
    27 H      -6.719000    -2.034955    -2.181156 H          1 UNL1 0.000
    28 H      -5.706300    -4.117272    -1.289088 H          1 UNL1 0.000
    29 H      -3.497400    -4.026816    -0.162009 H          1 UNL1 0.000
    30 H      -2.333023    -1.894042     0.113332 H          1 UNL1 0.000
    31 H      -1.536789     0.221574    -2.855793 H          1 UNL1 0.000
    32 H       2.165492     0.338338    -0.717826 H          1 UNL1 0.000
    33 H      -1.559958     0.818153     1.410212 H          1 UNL1 0.000
    34 C       1.127388     0.626615     1.786874 C          1 UNL1 0.000
    35 C       1.780314    -0.522948     2.266686 C          1 UNL1 0.000
    36 C       2.474206    -0.501065     3.478219 C          1 UNL1 0.000
    37 C       2.535100     0.680128     4.210896 C          1 UNL1 0.000
    38 C       1.874193     1.822996     3.770377 C          1 UNL1 0.000
    39 C       1.177569     1.797398     2.559245 C          1 UNL1 0.000
    40 O       3.185463     0.717213     5.413459 O          1 UNL1 0.000
    41 C       4.592075     0.849510     5.206419 C          1 UNL1 0.000
    42 H       1.734617    -1.452313     1.701951 H          1 UNL1 0.000
    43 H       2.952622    -1.402899     3.848144 H          1 UNL1 0.000
    44 H       1.902598     2.731039     4.365353 H          1 UNL1 0.000
    45 H       0.673963     2.699717     2.218849 H          1 UNL1 0.000
    46 H       5.066594     0.952597     6.186851 H          1 UNL1 0.000
    47 H       4.823334     1.747341     4.622042 H          1 UNL1 0.000
    48 H       5.008285    -0.039824     4.720960 H          1 UNL1 0.000
@<TRIPOS>BOND
     1      1      2   2
     2      2      3   1
     3      3      4   2
     4      4      5   1
     5      5      6   2
     6      6      1   1
     7      4      7   1
     8      7      8   1
     9      8      9   2
    10      9     10   1
    11     10     11   2
    12     11     12   1
    13     12     13   2
    14     13      8   1
    15     14     15   2
    16     15     16   1
    17     16     17   2
    18     17     18   1
    19     18     19   2
    20     19     14   1
    21     16     20   1
    22      7     14   1
    23      1     21   1
    24      2     22   1
    25      3     23   1
    26      5     24   1
    27      6     25   1
    28      9     26   1
    29     10     27   1
    30     11     28   1
    31     12     29   1
    32     13     30   1
    33     15     31   1
    34     17     32   1
    35     19     33   1
    36     34     35   2
    37     35     36   1
    38     36     37   2
    39     37     38   1
    40     38     39   2
    41     39     34   1
    42     40     41   1
    43     37     40   1
    44     35     42   1
    45     36     43   1
    46     38     44   1
    47     39     45   1
    48     41     46   1
    49     41     47   1
    50     41     48   1
    51     18     34   1
