# Produced with molli package
@<TRIPOS>MOLECULE
A_10_S
49 52 0 0 0
SMALL
USER_CHARGES

@<TRIPOS>ATOM
     1 C      -5.182477     4.367178    -0.492895 C          1 UNL1 0.000
     2 C      -5.879305     3.225757    -0.110578 C          1 UNL1 0.000
     3 C      -5.249710     1.971320    -0.117383 C          1 UNL1 0.000
     4 C      -3.927972     1.812905    -0.564039 C          1 UNL1 0.000
     5 C      -3.239470     3.000564    -0.907420 C          1 UNL1 0.000
     6 C      -3.852349     4.257696    -0.870653 C          1 UNL1 0.000
     7 N      -3.261719     0.523552    -0.642902 N          1 UNL1 0.000
     8 C      -3.916591    -0.768800    -0.774767 C          1 UNL1 0.000
     9 C      -5.230562    -0.926681    -1.244419 C          1 UNL1 0.000
    10 C      -5.835976    -2.190183    -1.331486 C          1 UNL1 0.000
    11 C      -5.122693    -3.338712    -1.005861 C          1 UNL1 0.000
    12 C      -3.802822    -3.225850    -0.594471 C          1 UNL1 0.000
    13 C      -3.215501    -1.961309    -0.474255 C          1 UNL1 0.000
    14 C      -1.819978     0.529350    -0.660675 C          1 UNL1 0.000
    15 C      -1.134317     0.464938    -1.880212 C          1 UNL1 0.000
    16 C       0.251719     0.476459    -1.882130 C          1 UNL1 0.000
    17 C       0.972370     0.516679    -0.692703 C          1 UNL1 0.000
    18 C       0.306110     0.559072     0.540949 C          1 UNL1 0.000
    19 C      -1.096580     0.587898     0.544656 C          1 UNL1 0.000
    20 F       0.909629     0.445295    -3.048311 F          1 UNL1 0.000
    21 H      -5.668297     5.339113    -0.482286 H          1 UNL1 0.000
    22 H      -6.916527     3.308656     0.204402 H          1 UNL1 0.000
    23 H      -5.820000     1.126610     0.256051 H          1 UNL1 0.000
    24 H      -2.200448     2.975322    -1.224278 H          1 UNL1 0.000
    25 H      -3.284714     5.143429    -1.144525 H          1 UNL1 0.000
    26 H      -5.813356    -0.076367    -1.582897 H          1 UNL1 0.000
    27 H      -6.865884    -2.273630    -1.669689 H          1 UNL1 0.000
    28 H      -5.587893    -4.317415    -1.086854 H          1 UNL1 0.000
    29 H      -3.222696    -4.115665    -0.363669 H          1 UNL1 0.000
    30 H      -2.183287    -1.933372    -0.135840 H          1 UNL1 0.000
    31 H      -1.677689     0.425426    -2.818777 H          1 UNL1 0.000
    32 H       2.058150     0.513704    -0.737869 H          1 UNL1 0.000
    33 H      -1.641300     0.621593     1.486924 H          1 UNL1 0.000
    34 C       1.066329     0.544645     1.792240 C          1 UNL1 0.000
    35 C       1.248107     1.711439     2.542300 C          1 UNL1 0.000
    36 C       2.018749     1.693407     3.710106 C          1 UNL1 0.000
    37 C       2.616763     0.506670     4.160353 C          1 UNL1 0.000
    38 C       2.412614    -0.668038     3.430671 C          1 UNL1 0.000
    39 C       1.650135    -0.644126     2.255444 C          1 UNL1 0.000
    40 C       3.451550     0.570784     5.400350 C          1 UNL1 0.000
    41 C       4.113704    -0.665815     5.952353 C          1 UNL1 0.000
    42 O       3.577376     1.647934     5.986115 O          1 UNL1 0.000
    43 H       0.804342     2.649765     2.214547 H          1 UNL1 0.000
    44 H       2.155019     2.620683     4.265131 H          1 UNL1 0.000
    45 H       2.832026    -1.620402     3.735572 H          1 UNL1 0.000
    46 H       1.514241    -1.568387     1.695216 H          1 UNL1 0.000
    47 H       5.112624    -0.394459     6.309112 H          1 UNL1 0.000
    48 H       4.253166    -1.453338     5.213226 H          1 UNL1 0.000
    49 H       3.521361    -1.046519     6.788396 H          1 UNL1 0.000
@<TRIPOS>BOND
     1      1      2   2
     2      2      3   1
     3      3      4   2
     4      4      5   1
     5      5      6   2
     6      6      1   1
     7      4      7   1
     8      7      8   1
     9      8      9   2
    10      9     10   1
    11     10     11   2
    12     11     12   1
    13     12     13   2
    14     13      8   1
    15     14     15   2
    16     15     16   1
    17     16     17   2
    18     17     18   1
    19     18     19   2
    20     19     14   1
    21     16     20   1
    22      7     14   1
    23      1     21   1
    24      2     22   1
    25      3     23   1
    26      5     24   1
    27      6     25   1
    28      9     26   1
    29     10     27   1
    30     11     28   1
    31     12     29   1
    32     13     30   1
    33     15     31   1
    34     17     32   1
    35     19     33   1
    36     34     35   2
    37     35     36   1
    38     36     37   2
    39     37     38   1
    40     38     39   2
    41     39     34   1
    42     37     40   1
    43     40     41   1
    44     40     42   2
    45     35     43   1
    46     36     44   1
    47     38     45   1
    48     39     46   1
    49     41     47   1
    50     41     48   1
    51     41     49   1
    52     18     34   1
