# Produced with molli package
@<TRIPOS>MOLECULE
A_10_O
43 46 0 0 0
SMALL
USER_CHARGES

@<TRIPOS>ATOM
     1 C      -5.217454     4.320834    -0.390872 C          1 UNL1 0.000
     2 C      -5.811067     3.155362     0.083758 C          1 UNL1 0.000
     3 C      -5.134196     1.934085    -0.008724 C          1 UNL1 0.000
     4 C      -3.859143     1.845709    -0.596421 C          1 UNL1 0.000
     5 C      -3.271310     3.044844    -1.043793 C          1 UNL1 0.000
     6 C      -3.943788     4.267574    -0.947024 C          1 UNL1 0.000
     7 N      -3.167956     0.583153    -0.721770 N          1 UNL1 0.000
     8 C      -3.851654    -0.681263    -0.882294 C          1 UNL1 0.000
     9 C      -5.066363    -0.783605    -1.582010 C          1 UNL1 0.000
    10 C      -5.717576    -2.013587    -1.728727 C          1 UNL1 0.000
    11 C      -5.157864    -3.170833    -1.194313 C          1 UNL1 0.000
    12 C      -3.944865    -3.101193    -0.517875 C          1 UNL1 0.000
    13 C      -3.298970    -1.870690    -0.366462 C          1 UNL1 0.000
    14 C      -1.730944     0.574261    -0.734605 C          1 UNL1 0.000
    15 C      -1.039744     0.385880    -1.937303 C          1 UNL1 0.000
    16 C       0.346367     0.332824    -1.928208 C          1 UNL1 0.000
    17 C       1.062558     0.416746    -0.739158 C          1 UNL1 0.000
    18 C       0.390997     0.579835     0.481499 C          1 UNL1 0.000
    19 C      -1.009042     0.697519     0.465023 C          1 UNL1 0.000
    20 F       1.007531     0.175765    -3.082852 F          1 UNL1 0.000
    21 H      -5.742108     5.269858    -0.320215 H          1 UNL1 0.000
    22 H      -6.800334     3.193005     0.532215 H          1 UNL1 0.000
    23 H      -5.614148     1.048899     0.401039 H          1 UNL1 0.000
    24 H      -2.282884     3.044127    -1.495655 H          1 UNL1 0.000
    25 H      -3.468705     5.175121    -1.310553 H          1 UNL1 0.000
    26 H      -5.512930     0.094876    -2.040996 H          1 UNL1 0.000
    27 H      -6.659800    -2.065536    -2.267973 H          1 UNL1 0.000
    28 H      -5.662723    -4.126211    -1.310116 H          1 UNL1 0.000
    29 H      -3.497966    -4.001157    -0.103598 H          1 UNL1 0.000
    30 H      -2.360377    -1.852476     0.180775 H          1 UNL1 0.000
    31 H      -1.577212     0.291414    -2.875189 H          1 UNL1 0.000
    32 H       2.146564     0.350733    -0.772280 H          1 UNL1 0.000
    33 H      -1.549637     0.833255     1.400823 H          1 UNL1 0.000
    34 C       1.124630     0.565041     1.747688 C          1 UNL1 0.000
    35 N       1.168629     1.734445     2.427516 N          1 UNL1 0.000
    36 C       1.841702     1.741121     3.599907 C          1 UNL1 0.000
    37 C       2.467263     0.629302     4.140394 C          1 UNL1 0.000
    38 C       2.403276    -0.565988     3.436499 C          1 UNL1 0.000
    39 C       1.726443    -0.601093     2.221187 C          1 UNL1 0.000
    40 H       1.865698     2.698741     4.112265 H          1 UNL1 0.000
    41 H       2.989759     0.693444     5.088158 H          1 UNL1 0.000
    42 H       2.873110    -1.463314     3.828800 H          1 UNL1 0.000
    43 H       1.658936    -1.527419     1.659240 H          1 UNL1 0.000
@<TRIPOS>BOND
     1      1      2   2
     2      2      3   1
     3      3      4   2
     4      4      5   1
     5      5      6   2
     6      6      1   1
     7      4      7   1
     8      7      8   1
     9      8      9   2
    10      9     10   1
    11     10     11   2
    12     11     12   1
    13     12     13   2
    14     13      8   1
    15     14     15   2
    16     15     16   1
    17     16     17   2
    18     17     18   1
    19     18     19   2
    20     19     14   1
    21     16     20   1
    22      7     14   1
    23      1     21   1
    24      2     22   1
    25      3     23   1
    26      5     24   1
    27      6     25   1
    28      9     26   1
    29     10     27   1
    30     11     28   1
    31     12     29   1
    32     13     30   1
    33     15     31   1
    34     17     32   1
    35     19     33   1
    36     34     35   2
    37     35     36   1
    38     36     37   2
    39     37     38   1
    40     38     39   2
    41     39     34   1
    42     36     40   1
    43     37     41   1
    44     38     42   1
    45     39     43   1
    46     18     34   1
