# Produced with molli package
@<TRIPOS>MOLECULE
A_10_N
41 44 0 0 0
SMALL
USER_CHARGES

@<TRIPOS>ATOM
     1 C      -5.336303     4.192289    -1.207753 C          1 UNL1 0.000
     2 C      -5.841449     3.018303    -1.760620 C          1 UNL1 0.000
     3 C      -5.131307     1.819604    -1.635786 C          1 UNL1 0.000
     4 C      -3.907933     1.769039    -0.946012 C          1 UNL1 0.000
     5 C      -3.410928     2.972966    -0.409455 C          1 UNL1 0.000
     6 C      -4.118833     4.171313    -0.535149 C          1 UNL1 0.000
     7 N      -3.166313     0.536785    -0.810141 N          1 UNL1 0.000
     8 C      -3.806456    -0.745720    -0.641066 C          1 UNL1 0.000
     9 C      -5.038170    -0.871208     0.026231 C          1 UNL1 0.000
    10 C      -5.663121    -2.114367     0.169619 C          1 UNL1 0.000
    11 C      -5.061638    -3.261290    -0.339929 C          1 UNL1 0.000
    12 C      -3.832117    -3.167541    -0.984507 C          1 UNL1 0.000
    13 C      -3.209439    -1.923653    -1.129031 C          1 UNL1 0.000
    14 C      -1.731603     0.604440    -0.838654 C          1 UNL1 0.000
    15 C      -1.063825     0.919309    -2.029003 C          1 UNL1 0.000
    16 C       0.319920     1.035932    -2.030264 C          1 UNL1 0.000
    17 C       1.057234     0.882212    -0.861683 C          1 UNL1 0.000
    18 C       0.401123     0.580597     0.335205 C          1 UNL1 0.000
    19 C      -0.990098     0.414578     0.339495 C          1 UNL1 0.000
    20 F       0.955307     1.320942    -3.174656 F          1 UNL1 0.000
    21 H      -5.888176     5.123507    -1.304865 H          1 UNL1 0.000
    22 H      -6.787262     3.033493    -2.295825 H          1 UNL1 0.000
    23 H      -5.536455     0.924730    -2.101797 H          1 UNL1 0.000
    24 H      -2.470613     2.988735     0.135588 H          1 UNL1 0.000
    25 H      -3.717117     5.084527    -0.103780 H          1 UNL1 0.000
    26 H      -5.521246     0.001736     0.458548 H          1 UNL1 0.000
    27 H      -6.618674    -2.183466     0.683013 H          1 UNL1 0.000
    28 H      -5.548230    -4.227069    -0.231517 H          1 UNL1 0.000
    29 H      -3.356217    -4.060215    -1.382240 H          1 UNL1 0.000
    30 H      -2.258416    -1.885223    -1.653899 H          1 UNL1 0.000
    31 H      -1.617062     1.069207    -2.950731 H          1 UNL1 0.000
    32 H       2.135436     1.006727    -0.897116 H          1 UNL1 0.000
    33 H      -1.516387     0.201629     1.268053 H          1 UNL1 0.000
    34 C       1.152465     0.522047     1.577822 C          1 UNL1 0.000
    35 C       1.186211    -0.613564     2.361724 C          1 UNL1 0.000
    36 S       2.129717    -0.399248     3.775558 S          1 UNL1 0.000
    37 C       2.495573     1.217446     3.355107 C          1 UNL1 0.000
    38 C       1.919505     1.581873     2.158342 C          1 UNL1 0.000
    39 H       0.708440    -1.566743     2.178905 H          1 UNL1 0.000
    40 H       3.112381     1.823789     4.004354 H          1 UNL1 0.000
    41 H       2.028648     2.569833     1.726595 H          1 UNL1 0.000
@<TRIPOS>BOND
     1      1      2   2
     2      2      3   1
     3      3      4   2
     4      4      5   1
     5      5      6   2
     6      6      1   1
     7      4      7   1
     8      7      8   1
     9      8      9   2
    10      9     10   1
    11     10     11   2
    12     11     12   1
    13     12     13   2
    14     13      8   1
    15     14     15   2
    16     15     16   1
    17     16     17   2
    18     17     18   1
    19     18     19   2
    20     19     14   1
    21     16     20   1
    22      7     14   1
    23      1     21   1
    24      2     22   1
    25      3     23   1
    26      5     24   1
    27      6     25   1
    28      9     26   1
    29     10     27   1
    30     11     28   1
    31     12     29   1
    32     13     30   1
    33     15     31   1
    34     17     32   1
    35     19     33   1
    36     34     35   2
    37     35     36   1
    38     36     37   1
    39     37     38   2
    40     38     34   1
    41     35     39   1
    42     37     40   1
    43     38     41   1
    44     18     34   1
