# Produced with molli package
@<TRIPOS>MOLECULE
A_10_M
45 48 0 0 0
SMALL
USER_CHARGES

@<TRIPOS>ATOM
     1 C      -5.249906     4.364022    -0.540184 C          1 UNL1 0.000
     2 C      -5.897762     3.220412    -0.086020 C          1 UNL1 0.000
     3 C      -5.230680     1.988416    -0.076202 C          1 UNL1 0.000
     4 C      -3.920720     1.855634    -0.569860 C          1 UNL1 0.000
     5 C      -3.276237     3.041946    -0.980264 C          1 UNL1 0.000
     6 C      -3.930670     4.279042    -0.967595 C          1 UNL1 0.000
     7 N      -3.245367     0.574543    -0.644253 N          1 UNL1 0.000
     8 C      -3.921560    -0.699086    -0.823896 C          1 UNL1 0.000
     9 C      -5.207262    -0.806695    -1.382405 C          1 UNL1 0.000
    10 C      -5.852084    -2.044450    -1.509816 C          1 UNL1 0.000
    11 C      -5.205401    -3.215100    -1.129108 C          1 UNL1 0.000
    12 C      -3.912069    -3.149640    -0.627260 C          1 UNL1 0.000
    13 C      -3.283170    -1.909165    -0.473074 C          1 UNL1 0.000
    14 C      -1.804510     0.565856    -0.645957 C          1 UNL1 0.000
    15 C      -1.108032     0.450473    -1.855827 C          1 UNL1 0.000
    16 C       0.277540     0.409312    -1.844727 C          1 UNL1 0.000
    17 C       0.988068     0.448329    -0.650067 C          1 UNL1 0.000
    18 C       0.313267     0.546777     0.575915 C          1 UNL1 0.000
    19 C      -1.088869     0.630038     0.564927 C          1 UNL1 0.000
    20 F       0.944581     0.319661    -3.002636 F          1 UNL1 0.000
    21 H      -5.767333     5.319637    -0.551517 H          1 UNL1 0.000
    22 H      -6.925058     3.282357     0.264101 H          1 UNL1 0.000
    23 H      -5.759235     1.130882     0.331405 H          1 UNL1 0.000
    24 H      -2.252226     3.025007    -1.342875 H          1 UNL1 0.000
    25 H      -3.407584     5.170682    -1.303838 H          1 UNL1 0.000
    26 H      -5.732466     0.069921    -1.750082 H          1 UNL1 0.000
    27 H      -6.858938    -2.089801    -1.917227 H          1 UNL1 0.000
    28 H      -5.702557    -4.175597    -1.234646 H          1 UNL1 0.000
    29 H      -3.387297    -4.060115    -0.349561 H          1 UNL1 0.000
    30 H      -2.277290    -1.910430    -0.062133 H          1 UNL1 0.000
    31 H      -1.642245     0.401596    -2.799233 H          1 UNL1 0.000
    32 H       2.073155     0.395639    -0.684518 H          1 UNL1 0.000
    33 H      -1.640002     0.699712     1.501331 H          1 UNL1 0.000
    34 C       1.071093     0.525273     1.830337 C          1 UNL1 0.000
    35 C       1.304124     1.701658     2.556455 C          1 UNL1 0.000
    36 C       2.086423     1.681824     3.716922 C          1 UNL1 0.000
    37 C       2.641132     0.481343     4.171311 C          1 UNL1 0.000
    38 C       2.399158    -0.700960     3.467479 C          1 UNL1 0.000
    39 C       1.620787    -0.676831     2.306115 C          1 UNL1 0.000
    40 C       3.464900     0.464011     5.344330 C          1 UNL1 0.000
    41 N       4.138488     0.448364     6.289993 N          1 UNL1 0.000
    42 H       0.893282     2.647939     2.208524 H          1 UNL1 0.000
    43 H       2.267505     2.611297     4.253794 H          1 UNL1 0.000
    44 H       2.820592    -1.644955     3.808586 H          1 UNL1 0.000
    45 H       1.450816    -1.606054     1.764024 H          1 UNL1 0.000
@<TRIPOS>BOND
     1      1      2   2
     2      2      3   1
     3      3      4   2
     4      4      5   1
     5      5      6   2
     6      6      1   1
     7      4      7   1
     8      7      8   1
     9      8      9   2
    10      9     10   1
    11     10     11   2
    12     11     12   1
    13     12     13   2
    14     13      8   1
    15     14     15   2
    16     15     16   1
    17     16     17   2
    18     17     18   1
    19     18     19   2
    20     19     14   1
    21     16     20   1
    22      7     14   1
    23      1     21   1
    24      2     22   1
    25      3     23   1
    26      5     24   1
    27      6     25   1
    28      9     26   1
    29     10     27   1
    30     11     28   1
    31     12     29   1
    32     13     30   1
    33     15     31   1
    34     17     32   1
    35     19     33   1
    36     34     35   2
    37     35     36   1
    38     36     37   2
    39     37     38   1
    40     38     39   2
    41     39     34   1
    42     40     41   3
    43     37     40   1
    44     35     42   1
    45     36     43   1
    46     38     44   1
    47     39     45   1
    48     18     34   1
