# Produced with molli package
@<TRIPOS>MOLECULE
A_10_R
45 48 0 0 0
SMALL
USER_CHARGES

@<TRIPOS>ATOM
     1 C      -5.224781     4.282667    -0.403838 C          1 UNL1 0.000
     2 C      -5.831950     3.130233     0.085043 C          1 UNL1 0.000
     3 C      -5.157664     1.904885     0.034498 C          1 UNL1 0.000
     4 C      -3.872602     1.797801    -0.527801 C          1 UNL1 0.000
     5 C      -3.270574     2.985577    -0.987184 C          1 UNL1 0.000
     6 C      -3.939870     4.212719    -0.931081 C          1 UNL1 0.000
     7 N      -3.187821     0.528258    -0.617139 N          1 UNL1 0.000
     8 C      -3.874255    -0.734772    -0.787993 C          1 UNL1 0.000
     9 C      -5.089228    -0.833664    -1.487707 C          1 UNL1 0.000
    10 C      -5.736694    -2.064201    -1.648302 C          1 UNL1 0.000
    11 C      -5.172023    -3.226386    -1.130470 C          1 UNL1 0.000
    12 C      -3.958600    -3.160919    -0.454943 C          1 UNL1 0.000
    13 C      -3.318069    -1.929638    -0.287255 C          1 UNL1 0.000
    14 C      -1.750438     0.512071    -0.637869 C          1 UNL1 0.000
    15 C      -1.070142     0.329192    -1.847771 C          1 UNL1 0.000
    16 C       0.314175     0.261747    -1.849371 C          1 UNL1 0.000
    17 C       1.038132     0.325085    -0.663940 C          1 UNL1 0.000
    18 C       0.378958     0.480886     0.565772 C          1 UNL1 0.000
    19 C      -1.019872     0.616110     0.559531 C          1 UNL1 0.000
    20 F       0.966982     0.109611    -3.008886 F          1 UNL1 0.000
    21 H      -5.747908     5.234517    -0.366962 H          1 UNL1 0.000
    22 H      -6.830651     3.181264     0.510868 H          1 UNL1 0.000
    23 H      -5.649753     1.030952     0.454027 H          1 UNL1 0.000
    24 H      -2.273684     2.973305    -1.419417 H          1 UNL1 0.000
    25 H      -3.454232     5.110407    -1.305147 H          1 UNL1 0.000
    26 H      -5.539859     0.046597    -1.938979 H          1 UNL1 0.000
    27 H      -6.679530    -2.112735    -2.186960 H          1 UNL1 0.000
    28 H      -5.673078    -4.182163    -1.259131 H          1 UNL1 0.000
    29 H      -3.506907    -4.064959    -0.054957 H          1 UNL1 0.000
    30 H      -2.378432    -1.916644     0.258005 H          1 UNL1 0.000
    31 H      -1.615593     0.248343    -2.782503 H          1 UNL1 0.000
    32 H       2.121181     0.248901    -0.711157 H          1 UNL1 0.000
    33 H      -1.555684     0.747152     1.498789 H          1 UNL1 0.000
    34 C       1.129520     0.442991     1.823963 C          1 UNL1 0.000
    35 N       1.055383     1.551623     2.604235 N          1 UNL1 0.000
    36 C       1.766366     1.553425     3.759948 C          1 UNL1 0.000
    37 C       2.543566     0.481114     4.160864 C          1 UNL1 0.000
    38 C       2.606268    -0.664163     3.374362 C          1 UNL1 0.000
    39 C       1.881442    -0.681074     2.185224 C          1 UNL1 0.000
    40 N       3.292327     0.568983     5.390728 N          1 UNL1 0.000
    41 O       4.478065     0.205650     5.354478 O          1 UNL1 0.000
    42 O       2.700083     0.993066     6.387560 O          1 UNL1 0.000
    43 H       1.693111     2.467041     4.343960 H          1 UNL1 0.000
    44 H       3.197912    -1.526360     3.670896 H          1 UNL1 0.000
    45 H       1.897625    -1.562659     1.550012 H          1 UNL1 0.000
@<TRIPOS>BOND
     1      1      2   2
     2      2      3   1
     3      3      4   2
     4      4      5   1
     5      5      6   2
     6      6      1   1
     7      4      7   1
     8      7      8   1
     9      8      9   2
    10      9     10   1
    11     10     11   2
    12     11     12   1
    13     12     13   2
    14     13      8   1
    15     14     15   2
    16     15     16   1
    17     16     17   2
    18     17     18   1
    19     18     19   2
    20     19     14   1
    21     16     20   1
    22      7     14   1
    23      1     21   1
    24      2     22   1
    25      3     23   1
    26      5     24   1
    27      6     25   1
    28      9     26   1
    29     10     27   1
    30     11     28   1
    31     12     29   1
    32     13     30   1
    33     15     31   1
    34     17     32   1
    35     19     33   1
    36     34     35   2
    37     35     36   1
    38     36     37   2
    39     37     38   1
    40     38     39   2
    41     39     34   1
    42     40     41   2
    43     40     42   1
    44     37     40   1
    45     36     43   1
    46     38     44   1
    47     39     45   1
    48     18     34   1
