# Produced with molli package
@<TRIPOS>MOLECULE
A_10_T
47 50 0 0 0
SMALL
USER_CHARGES

@<TRIPOS>ATOM
     1 C      -5.197877     4.226501    -0.474152 C          1 UNL1 0.000
     2 C      -5.782600     3.079508     0.053868 C          1 UNL1 0.000
     3 C      -5.105494     1.855390     0.000554 C          1 UNL1 0.000
     4 C      -3.841675     1.743294    -0.605600 C          1 UNL1 0.000
     5 C      -3.262847     2.926401    -1.107554 C          1 UNL1 0.000
     6 C      -3.932937     4.152563    -1.046245 C          1 UNL1 0.000
     7 N      -3.144319     0.479220    -0.691172 N          1 UNL1 0.000
     8 C      -3.812613    -0.801271    -0.795725 C          1 UNL1 0.000
     9 C      -5.073071    -0.937465    -1.403466 C          1 UNL1 0.000
    10 C      -5.711770    -2.180782    -1.487200 C          1 UNL1 0.000
    11 C      -5.091566    -3.322530    -0.988919 C          1 UNL1 0.000
    12 C      -3.830767    -3.223646    -0.412353 C          1 UNL1 0.000
    13 C      -3.200242    -1.978820    -0.318637 C          1 UNL1 0.000
    14 C      -1.706651     0.491828    -0.693188 C          1 UNL1 0.000
    15 C      -1.002420     0.336993    -1.892828 C          1 UNL1 0.000
    16 C       0.384455     0.324316    -1.872701 C          1 UNL1 0.000
    17 C       1.088722     0.422096    -0.677032 C          1 UNL1 0.000
    18 C       0.404126     0.553555     0.539705 C          1 UNL1 0.000
    19 C      -0.998164     0.618773     0.514912 C          1 UNL1 0.000
    20 F       1.058796     0.201350    -3.023911 F          1 UNL1 0.000
    21 H      -5.723013     5.177070    -0.433426 H          1 UNL1 0.000
    22 H      -6.765870     3.134181     0.513847 H          1 UNL1 0.000
    23 H      -5.577662     0.988560     0.455865 H          1 UNL1 0.000
    24 H      -2.282772     2.910030    -1.576586 H          1 UNL1 0.000
    25 H      -3.463910     5.045407    -1.451687 H          1 UNL1 0.000
    26 H      -5.572033    -0.076525    -1.840551 H          1 UNL1 0.000
    27 H      -6.692287    -2.254878    -1.950322 H          1 UNL1 0.000
    28 H      -5.585477    -4.288131    -1.056999 H          1 UNL1 0.000
    29 H      -3.333060    -4.111476    -0.030831 H          1 UNL1 0.000
    30 H      -2.221144    -1.945200     0.151703 H          1 UNL1 0.000
    31 H      -1.530157     0.237789    -2.835658 H          1 UNL1 0.000
    32 H       2.174485     0.385237    -0.701619 H          1 UNL1 0.000
    33 H      -1.554849     0.713560     1.446119 H          1 UNL1 0.000
    34 C       1.135554     0.562390     1.809597 C          1 UNL1 0.000
    35 C       1.748779    -0.609705     2.279126 C          1 UNL1 0.000
    36 C       2.449743    -0.621037     3.487696 C          1 UNL1 0.000
    37 C       2.558060     0.544314     4.251312 C          1 UNL1 0.000
    38 C       1.944465     1.716006     3.792593 C          1 UNL1 0.000
    39 C       1.238112     1.724078     2.585159 C          1 UNL1 0.000
    40 C       3.309209     0.546688     5.549507 C          1 UNL1 0.000
    41 H       1.675344    -1.530980     1.704205 H          1 UNL1 0.000
    42 H       2.908640    -1.547683     3.824699 H          1 UNL1 0.000
    43 H       2.014091     2.633077     4.373527 H          1 UNL1 0.000
    44 H       0.773401     2.648490     2.248746 H          1 UNL1 0.000
    45 H       2.628030     0.761638     6.378821 H          1 UNL1 0.000
    46 H       4.100846     1.302484     5.526582 H          1 UNL1 0.000
    47 H       3.780574    -0.422903     5.742196 H          1 UNL1 0.000
@<TRIPOS>BOND
     1      1      2   2
     2      2      3   1
     3      3      4   2
     4      4      5   1
     5      5      6   2
     6      6      1   1
     7      4      7   1
     8      7      8   1
     9      8      9   2
    10      9     10   1
    11     10     11   2
    12     11     12   1
    13     12     13   2
    14     13      8   1
    15     14     15   2
    16     15     16   1
    17     16     17   2
    18     17     18   1
    19     18     19   2
    20     19     14   1
    21     16     20   1
    22      7     14   1
    23      1     21   1
    24      2     22   1
    25      3     23   1
    26      5     24   1
    27      6     25   1
    28      9     26   1
    29     10     27   1
    30     11     28   1
    31     12     29   1
    32     13     30   1
    33     15     31   1
    34     17     32   1
    35     19     33   1
    36     34     35   2
    37     35     36   1
    38     36     37   2
    39     37     38   1
    40     38     39   2
    41     39     34   1
    42     37     40   1
    43     35     41   1
    44     36     42   1
    45     38     43   1
    46     39     44   1
    47     40     45   1
    48     40     46   1
    49     40     47   1
    50     18     34   1
