# Produced with molli package
@<TRIPOS>MOLECULE
A_10_Q
42 45 0 0 0
SMALL
USER_CHARGES

@<TRIPOS>ATOM
     1 C      -5.304314     4.260710    -1.178705 C          1 UNL1 0.000
     2 C      -5.808156     3.095896    -1.751265 C          1 UNL1 0.000
     3 C      -5.120662     1.886687    -1.604524 C          1 UNL1 0.000
     4 C      -3.922300     1.815659    -0.873003 C          1 UNL1 0.000
     5 C      -3.424333     3.010639    -0.318963 C          1 UNL1 0.000
     6 C      -4.110180     4.219696    -0.465895 C          1 UNL1 0.000
     7 N      -3.207636     0.571259    -0.712708 N          1 UNL1 0.000
     8 C      -3.874681    -0.702652    -0.579966 C          1 UNL1 0.000
     9 C      -5.132163    -0.813231     0.040095 C          1 UNL1 0.000
    10 C      -5.781706    -2.047314     0.150492 C          1 UNL1 0.000
    11 C      -5.179891    -3.200504    -0.344415 C          1 UNL1 0.000
    12 C      -3.925865    -3.122290    -0.941601 C          1 UNL1 0.000
    13 C      -3.278974    -1.887486    -1.053602 C          1 UNL1 0.000
    14 C      -1.772374     0.608705    -0.704810 C          1 UNL1 0.000
    15 C      -1.065894     0.842986    -1.890075 C          1 UNL1 0.000
    16 C       0.320825     0.877543    -1.863554 C          1 UNL1 0.000
    17 C       1.024929     0.712627    -0.675198 C          1 UNL1 0.000
    18 C       0.337732     0.503358     0.529462 C          1 UNL1 0.000
    19 C      -1.064898     0.434140     0.496825 C          1 UNL1 0.000
    20 F       0.996419     1.081691    -3.002639 F          1 UNL1 0.000
    21 H      -5.838469     5.200359    -1.291909 H          1 UNL1 0.000
    22 H      -6.734752     3.126090    -2.318419 H          1 UNL1 0.000
    23 H      -5.523360     0.999104    -2.086327 H          1 UNL1 0.000
    24 H      -2.502070     3.011275     0.257033 H          1 UNL1 0.000
    25 H      -3.709078     5.125766    -0.019084 H          1 UNL1 0.000
    26 H      -5.616758     0.064357     0.461218 H          1 UNL1 0.000
    27 H      -6.756728    -2.104533     0.627384 H          1 UNL1 0.000
    28 H      -5.685208    -4.159097    -0.261100 H          1 UNL1 0.000
    29 H      -3.449146    -4.019742    -1.327351 H          1 UNL1 0.000
    30 H      -2.308581    -1.862559    -1.542071 H          1 UNL1 0.000
    31 H      -1.591300     0.985910    -2.828710 H          1 UNL1 0.000
    32 H       2.109308     0.781725    -0.695119 H          1 UNL1 0.000
    33 H      -1.621110     0.285914     1.421883 H          1 UNL1 0.000
    34 C       1.058653     0.417243     1.795814 C          1 UNL1 0.000
    35 N       0.993970     1.518117     2.588235 N          1 UNL1 0.000
    36 C       1.690316     1.453782     3.746073 C          1 UNL1 0.000
    37 C       2.419734     0.336399     4.113781 C          1 UNL1 0.000
    38 N       2.487565    -0.769948     3.340032 N          1 UNL1 0.000
    39 C       1.793450    -0.702357     2.176474 C          1 UNL1 0.000
    40 H       1.648280     2.336084     4.374644 H          1 UNL1 0.000
    41 H       2.972874     0.302329     5.045336 H          1 UNL1 0.000
    42 H       1.844434    -1.587293     1.551161 H          1 UNL1 0.000
@<TRIPOS>BOND
     1      1      2   2
     2      2      3   1
     3      3      4   2
     4      4      5   1
     5      5      6   2
     6      6      1   1
     7      4      7   1
     8      7      8   1
     9      8      9   2
    10      9     10   1
    11     10     11   2
    12     11     12   1
    13     12     13   2
    14     13      8   1
    15     14     15   2
    16     15     16   1
    17     16     17   2
    18     17     18   1
    19     18     19   2
    20     19     14   1
    21     16     20   1
    22      7     14   1
    23      1     21   1
    24      2     22   1
    25      3     23   1
    26      5     24   1
    27      6     25   1
    28      9     26   1
    29     10     27   1
    30     11     28   1
    31     12     29   1
    32     13     30   1
    33     15     31   1
    34     17     32   1
    35     19     33   1
    36     34     35   2
    37     35     36   1
    38     36     37   2
    39     37     38   1
    40     38     39   2
    41     39     34   1
    42     36     40   1
    43     37     41   1
    44     39     42   1
    45     18     34   1
