# Produced with molli package
@<TRIPOS>MOLECULE
A_10_L
48 52 0 0 0
SMALL
USER_CHARGES

@<TRIPOS>ATOM
     1 C      -5.066404     4.249459    -1.196847 C          1 UNL1 0.000
     2 C      -5.656851     3.089182    -1.688053 C          1 UNL1 0.000
     3 C      -4.992539     1.861124    -1.583030 C          1 UNL1 0.000
     4 C      -3.736315     1.758545    -0.959868 C          1 UNL1 0.000
     5 C      -3.153971     2.954174    -0.490722 C          1 UNL1 0.000
     6 C      -3.809744     4.184168    -0.606301 C          1 UNL1 0.000
     7 N      -3.043928     0.493774    -0.829852 N          1 UNL1 0.000
     8 C      -3.716544    -0.784570    -0.749374 C          1 UNL1 0.000
     9 C      -4.986810    -0.921411    -0.162422 C          1 UNL1 0.000
    10 C      -5.638409    -2.159666    -0.115600 C          1 UNL1 0.000
    11 C      -5.021147    -3.295817    -0.630120 C          1 UNL1 0.000
    12 C      -3.749146    -3.197014    -1.182223 C          1 UNL1 0.000
    13 C      -3.104817    -1.957008    -1.237765 C          1 UNL1 0.000
    14 C      -1.606452     0.507058    -0.802660 C          1 UNL1 0.000
    15 C      -0.879904     0.675937    -1.986873 C          1 UNL1 0.000
    16 C       0.507054     0.679798    -1.942201 C          1 UNL1 0.000
    17 C       1.189971     0.555755    -0.736306 C          1 UNL1 0.000
    18 C       0.481937     0.417658     0.465316 C          1 UNL1 0.000
    19 C      -0.920222     0.368832     0.416757 C          1 UNL1 0.000
    20 F       1.201791     0.815023    -3.079582 F          1 UNL1 0.000
    21 H      -5.580197     5.203300    -1.281560 H          1 UNL1 0.000
    22 H      -6.633856     3.136513    -2.162027 H          1 UNL1 0.000
    23 H      -5.468661     0.984966    -2.015343 H          1 UNL1 0.000
    24 H      -2.179314     2.946004    -0.010188 H          1 UNL1 0.000
    25 H      -3.335185     5.087125    -0.230945 H          1 UNL1 0.000
    26 H      -5.484054    -0.063415     0.282669 H          1 UNL1 0.000
    27 H      -6.627303    -2.234129     0.329241 H          1 UNL1 0.000
    28 H      -5.526171    -4.257382    -0.593792 H          1 UNL1 0.000
    29 H      -3.254172    -4.081061    -1.575895 H          1 UNL1 0.000
    30 H      -2.117715    -1.921519    -1.690780 H          1 UNL1 0.000
    31 H      -1.389877     0.785492    -2.938372 H          1 UNL1 0.000
    32 H       2.276180     0.587604    -0.740151 H          1 UNL1 0.000
    33 H      -1.492035     0.254811     1.336444 H          1 UNL1 0.000
    34 C       1.191548     0.377016     1.746530 C          1 UNL1 0.000
    35 C       1.277176     1.532877     2.537400 C          1 UNL1 0.000
    36 C       1.967743     1.547463     3.754566 C          1 UNL1 0.000
    37 C       2.574483     0.356694     4.163177 C          1 UNL1 0.000
    38 C       2.510038    -0.817150     3.413581 C          1 UNL1 0.000
    39 C       1.809990    -0.805374     2.189847 C          1 UNL1 0.000
    40 N       3.312481     0.077959     5.291698 N          1 UNL1 0.000
    41 C       3.712611    -1.232003     5.282976 C          1 UNL1 0.000
    42 C       3.228953    -1.811947     4.132555 C          1 UNL1 0.000
    43 H       0.804217     2.453441     2.197849 H          1 UNL1 0.000
    44 H       2.028658     2.452979     4.348938 H          1 UNL1 0.000
    45 H       1.752499    -1.712399     1.594221 H          1 UNL1 0.000
    46 H       3.524892     0.748345     6.017084 H          1 UNL1 0.000
    47 H       4.304788    -1.636239     6.092889 H          1 UNL1 0.000
    48 H       3.376344    -2.841876     3.835427 H          1 UNL1 0.000
@<TRIPOS>BOND
     1      1      2   2
     2      2      3   1
     3      3      4   2
     4      4      5   1
     5      5      6   2
     6      6      1   1
     7      4      7   1
     8      7      8   1
     9      8      9   2
    10      9     10   1
    11     10     11   2
    12     11     12   1
    13     12     13   2
    14     13      8   1
    15     14     15   2
    16     15     16   1
    17     16     17   2
    18     17     18   1
    19     18     19   2
    20     19     14   1
    21     16     20   1
    22      7     14   1
    23      1     21   1
    24      2     22   1
    25      3     23   1
    26      5     24   1
    27      6     25   1
    28      9     26   1
    29     10     27   1
    30     11     28   1
    31     12     29   1
    32     13     30   1
    33     15     31   1
    34     17     32   1
    35     19     33   1
    36     34     35   2
    37     35     36   1
    38     36     37   2
    39     37     38   1
    40     38     39   2
    41     39     34   1
    42     37     40   1
    43     40     41   1
    44     41     42   2
    45     42     38   1
    46     35     43   1
    47     36     44   1
    48     39     45   1
    49     40     46   1
    50     41     47   1
    51     42     48   1
    52     18     34   1
