# Produced with molli package
@<TRIPOS>MOLECULE
A_1_K
46 49 0 0 0
SMALL
USER_CHARGES

@<TRIPOS>ATOM
     1 C      -5.986629     4.302543     0.759719 C          1 UNL1 0.000
     2 C      -6.558844     3.140059     1.268529 C          1 UNL1 0.000
     3 C      -5.871006     1.923732     1.189670 C          1 UNL1 0.000
     4 C      -4.606455     1.838760     0.581682 C          1 UNL1 0.000
     5 C      -4.043408     3.033989     0.090690 C          1 UNL1 0.000
     6 C      -4.724893     4.251738     0.177150 C          1 UNL1 0.000
     7 N      -3.892677     0.586428     0.475632 N          1 UNL1 0.000
     8 C      -4.552465    -0.694144     0.349977 C          1 UNL1 0.000
     9 C      -5.779763    -0.836477    -0.319292 C          1 UNL1 0.000
    10 C      -6.405419    -2.083679    -0.428042 C          1 UNL1 0.000
    11 C      -5.806781    -3.218105     0.113661 C          1 UNL1 0.000
    12 C      -4.581052    -3.108604     0.761264 C          1 UNL1 0.000
    13 C      -3.961934    -1.860862     0.876958 C          1 UNL1 0.000
    14 C      -2.455346     0.609963     0.473415 C          1 UNL1 0.000
    15 C      -1.747617     0.992153     1.620747 C          1 UNL1 0.000
    16 C      -0.349935     0.976605     1.625687 C          1 UNL1 0.000
    17 C       0.369687     0.597373     0.481306 C          1 UNL1 0.000
    18 C      -0.347125     0.236527    -0.670568 C          1 UNL1 0.000
    19 C      -1.743642     0.233348    -0.673359 C          1 UNL1 0.000
    20 H      -6.520486     5.247132     0.821552 H          1 UNL1 0.000
    21 H      -7.540775     3.176822     1.733077 H          1 UNL1 0.000
    22 H      -6.333054     1.041694     1.625736 H          1 UNL1 0.000
    23 H      -3.066528     3.028636    -0.386736 H          1 UNL1 0.000
    24 H      -4.267962     5.156024    -0.216305 H          1 UNL1 0.000
    25 H      -6.257116     0.022870    -0.783152 H          1 UNL1 0.000
    26 H      -7.358759    -2.167194    -0.943276 H          1 UNL1 0.000
    27 H      -6.291762    -4.186759     0.026578 H          1 UNL1 0.000
    28 H      -4.103445    -3.990123     1.180900 H          1 UNL1 0.000
    29 H      -3.011367    -1.808261     1.402407 H          1 UNL1 0.000
    30 H      -2.288231     1.271533     2.521816 H          1 UNL1 0.000
    31 H       0.175511     1.244996     2.540018 H          1 UNL1 0.000
    32 H       0.180694    -0.042403    -1.580346 H          1 UNL1 0.000
    33 H      -2.281296    -0.048612    -1.575383 H          1 UNL1 0.000
    34 C       1.837375     0.564056     0.489382 C          1 UNL1 0.000
    35 C       2.584389     1.735251     0.705349 C          1 UNL1 0.000
    36 C       3.981926     1.705640     0.708863 C          1 UNL1 0.000
    37 C       4.640019     0.490427     0.492292 C          1 UNL1 0.000
    38 C       3.921036    -0.688661     0.276413 C          1 UNL1 0.000
    39 C       2.524712    -0.644997     0.277556 C          1 UNL1 0.000
    40 N       6.101348     0.453518     0.491180 N          1 UNL1 0.000
    41 O       6.696863     1.313262     1.152878 O          1 UNL1 0.000
    42 O       6.650028    -0.438491    -0.173848 O          1 UNL1 0.000
    43 H       2.074096     2.684956     0.860782 H          1 UNL1 0.000
    44 H       4.536672     2.627063     0.871518 H          1 UNL1 0.000
    45 H       4.426945    -1.638006     0.113927 H          1 UNL1 0.000
    46 H       1.966233    -1.567059     0.120342 H          1 UNL1 0.000
@<TRIPOS>BOND
     1      1      2   2
     2      2      3   1
     3      3      4   2
     4      4      5   1
     5      5      6   2
     6      6      1   1
     7      4      7   1
     8      7      8   1
     9      8      9   2
    10      9     10   1
    11     10     11   2
    12     11     12   1
    13     12     13   2
    14     13      8   1
    15     14     15   2
    16     15     16   1
    17     16     17   2
    18     17     18   1
    19     18     19   2
    20     19     14   1
    21      7     14   1
    22      1     20   1
    23      2     21   1
    24      3     22   1
    25      5     23   1
    26      6     24   1
    27      9     25   1
    28     10     26   1
    29     11     27   1
    30     12     28   1
    31     13     29   1
    32     15     30   1
    33     16     31   1
    34     18     32   1
    35     19     33   1
    36     34     35   2
    37     35     36   1
    38     36     37   2
    39     37     38   1
    40     38     39   2
    41     39     34   1
    42     40     41   2
    43     40     42   1
    44     37     40   1
    45     35     43   1
    46     36     44   1
    47     38     45   1
    48     39     46   1
    49     17     34   1
