# Produced with molli package
@<TRIPOS>MOLECULE
A_1_S
49 52 0 0 0
SMALL
USER_CHARGES

@<TRIPOS>ATOM
     1 C      -5.816257     4.425965     0.745503 C          1 UNL1 0.000
     2 C      -6.491820     3.290658     1.180890 C          1 UNL1 0.000
     3 C      -5.869277     2.035454     1.136147 C          1 UNL1 0.000
     4 C      -4.575637     1.873799     0.611441 C          1 UNL1 0.000
     5 C      -3.906534     3.050602     0.208224 C          1 UNL1 0.000
     6 C      -4.515112     4.308732     0.274619 C          1 UNL1 0.000
     7 N      -3.923830     0.580995     0.515717 N          1 UNL1 0.000
     8 C      -4.614584    -0.691603     0.416138 C          1 UNL1 0.000
     9 C      -5.918616    -0.810788    -0.093885 C          1 UNL1 0.000
    10 C      -6.579327    -2.046425    -0.139533 C          1 UNL1 0.000
    11 C      -5.933105    -3.205014     0.278591 C          1 UNL1 0.000
    12 C      -4.623193    -3.130759     0.732928 C          1 UNL1 0.000
    13 C      -3.976613    -1.891935     0.801209 C          1 UNL1 0.000
    14 C      -2.484799     0.558659     0.535848 C          1 UNL1 0.000
    15 C      -1.794424     0.634849     1.753408 C          1 UNL1 0.000
    16 C      -0.398834     0.590174     1.773782 C          1 UNL1 0.000
    17 C       0.331633     0.495409     0.579551 C          1 UNL1 0.000
    18 C      -0.364830     0.435089    -0.637196 C          1 UNL1 0.000
    19 C      -1.761321     0.453081    -0.660099 C          1 UNL1 0.000
    20 H      -6.296681     5.399853     0.784740 H          1 UNL1 0.000
    21 H      -7.504544     3.378391     1.565929 H          1 UNL1 0.000
    22 H      -6.415754     1.188119     1.539901 H          1 UNL1 0.000
    23 H      -2.891794     3.009598    -0.178842 H          1 UNL1 0.000
    24 H      -3.967672     5.191046    -0.046857 H          1 UNL1 0.000
    25 H      -6.445215     0.055210    -0.484136 H          1 UNL1 0.000
    26 H      -7.599317    -2.100367    -0.511391 H          1 UNL1 0.000
    27 H      -6.443423    -4.163495     0.238861 H          1 UNL1 0.000
    28 H      -4.098269    -4.031408     1.040570 H          1 UNL1 0.000
    29 H      -2.956207    -1.885915     1.175168 H          1 UNL1 0.000
    30 H      -2.349398     0.706746     2.685376 H          1 UNL1 0.000
    31 H       0.119348     0.630835     2.729654 H          1 UNL1 0.000
    32 H       0.180308     0.374499    -1.576872 H          1 UNL1 0.000
    33 H      -2.290190     0.405110    -1.608668 H          1 UNL1 0.000
    34 C       1.794666     0.464349     0.603793 C          1 UNL1 0.000
    35 C       2.534510     1.651462     0.539545 C          1 UNL1 0.000
    36 C       3.931853     1.621695     0.561677 C          1 UNL1 0.000
    37 C       4.618640     0.403037     0.647835 C          1 UNL1 0.000
    38 C       3.885745    -0.785710     0.727696 C          1 UNL1 0.000
    39 C       2.485525    -0.752079     0.699717 C          1 UNL1 0.000
    40 C       6.111928     0.438890     0.659074 C          1 UNL1 0.000
    41 C       6.901752    -0.838193     0.536947 C          1 UNL1 0.000
    42 O       6.690866     1.518918     0.784887 O          1 UNL1 0.000
    43 H       2.024309     2.610733     0.472730 H          1 UNL1 0.000
    44 H       4.482145     2.559971     0.510762 H          1 UNL1 0.000
    45 H       4.368827    -1.752966     0.821836 H          1 UNL1 0.000
    46 H       1.929179    -1.686530     0.757229 H          1 UNL1 0.000
    47 H       7.802991    -0.635275    -0.050601 H          1 UNL1 0.000
    48 H       6.355838    -1.621120     0.008618 H          1 UNL1 0.000
    49 H       7.188141    -1.184800     1.532960 H          1 UNL1 0.000
@<TRIPOS>BOND
     1      1      2   2
     2      2      3   1
     3      3      4   2
     4      4      5   1
     5      5      6   2
     6      6      1   1
     7      4      7   1
     8      7      8   1
     9      8      9   2
    10      9     10   1
    11     10     11   2
    12     11     12   1
    13     12     13   2
    14     13      8   1
    15     14     15   2
    16     15     16   1
    17     16     17   2
    18     17     18   1
    19     18     19   2
    20     19     14   1
    21      7     14   1
    22      1     20   1
    23      2     21   1
    24      3     22   1
    25      5     23   1
    26      6     24   1
    27      9     25   1
    28     10     26   1
    29     11     27   1
    30     12     28   1
    31     13     29   1
    32     15     30   1
    33     16     31   1
    34     18     32   1
    35     19     33   1
    36     34     35   2
    37     35     36   1
    38     36     37   2
    39     37     38   1
    40     38     39   2
    41     39     34   1
    42     37     40   1
    43     40     41   1
    44     40     42   2
    45     35     43   1
    46     36     44   1
    47     38     45   1
    48     39     46   1
    49     41     47   1
    50     41     48   1
    51     41     49   1
    52     17     34   1
