# Produced with molli package
@<TRIPOS>MOLECULE
A_1_M
45 48 0 0 0
SMALL
USER_CHARGES

@<TRIPOS>ATOM
     1 C      -5.883633     4.308641     0.275332 C          1 UNL1 0.000
     2 C      -6.514724     3.156127    -0.181119 C          1 UNL1 0.000
     3 C      -5.858051     1.919746    -0.121418 C          1 UNL1 0.000
     4 C      -4.575748     1.794509     0.440030 C          1 UNL1 0.000
     5 C      -3.950588     2.987193     0.864511 C          1 UNL1 0.000
     6 C      -4.592794     4.227443     0.782239 C          1 UNL1 0.000
     7 N      -3.895380     0.519421     0.559637 N          1 UNL1 0.000
     8 C      -4.563524    -0.764694     0.661303 C          1 UNL1 0.000
     9 C      -5.873482    -0.902027     1.151786 C          1 UNL1 0.000
    10 C      -6.515464    -2.147177     1.191486 C          1 UNL1 0.000
    11 C      -5.843764    -3.296600     0.788631 C          1 UNL1 0.000
    12 C      -4.527364    -3.203447     0.355713 C          1 UNL1 0.000
    13 C      -3.899353    -1.954902     0.291174 C          1 UNL1 0.000
    14 C      -2.456064     0.528259     0.570136 C          1 UNL1 0.000
    15 C      -1.756034     0.354096     1.771755 C          1 UNL1 0.000
    16 C      -0.359390     0.355809     1.778347 C          1 UNL1 0.000
    17 C       0.363102     0.510981     0.585167 C          1 UNL1 0.000
    18 C      -0.343299     0.680746    -0.615162 C          1 UNL1 0.000
    19 C      -1.740408     0.699709    -0.623136 C          1 UNL1 0.000
    20 H      -6.391368     5.268133     0.226100 H          1 UNL1 0.000
    21 H      -7.519261     3.215303    -0.592168 H          1 UNL1 0.000
    22 H      -6.368727     1.056416    -0.538432 H          1 UNL1 0.000
    23 H      -2.947697     2.970138     1.283470 H          1 UNL1 0.000
    24 H      -4.081168     5.124348     1.121632 H          1 UNL1 0.000
    25 H      -6.420160    -0.041905     1.527455 H          1 UNL1 0.000
    26 H      -7.541101    -2.215340     1.545042 H          1 UNL1 0.000
    27 H      -6.340178    -4.262618     0.822483 H          1 UNL1 0.000
    28 H      -3.984042    -4.097217     0.060179 H          1 UNL1 0.000
    29 H      -2.874177    -1.931133    -0.069443 H          1 UNL1 0.000
    30 H      -2.303189     0.232768     2.703252 H          1 UNL1 0.000
    31 H       0.165890     0.235833     2.723694 H          1 UNL1 0.000
    32 H       0.193405     0.790715    -1.555238 H          1 UNL1 0.000
    33 H      -2.276244     0.822648    -1.561075 H          1 UNL1 0.000
    34 C       1.827226     0.488938     0.596101 C          1 UNL1 0.000
    35 C       2.522512    -0.729205     0.633326 C          1 UNL1 0.000
    36 C       3.920244    -0.754313     0.659097 C          1 UNL1 0.000
    37 C       4.642294     0.442349     0.650366 C          1 UNL1 0.000
    38 C       3.960552     1.662030     0.609423 C          1 UNL1 0.000
    39 C       2.562531     1.683346     0.580681 C          1 UNL1 0.000
    40 C       6.076097     0.418655     0.687571 C          1 UNL1 0.000
    41 N       7.234709     0.398994     0.719957 N          1 UNL1 0.000
    42 H       1.972397    -1.668912     0.642018 H          1 UNL1 0.000
    43 H       4.435976    -1.712342     0.688546 H          1 UNL1 0.000
    44 H       4.508435     2.602489     0.603309 H          1 UNL1 0.000
    45 H       2.044292     2.640601     0.554552 H          1 UNL1 0.000
@<TRIPOS>BOND
     1      1      2   2
     2      2      3   1
     3      3      4   2
     4      4      5   1
     5      5      6   2
     6      6      1   1
     7      4      7   1
     8      7      8   1
     9      8      9   2
    10      9     10   1
    11     10     11   2
    12     11     12   1
    13     12     13   2
    14     13      8   1
    15     14     15   2
    16     15     16   1
    17     16     17   2
    18     17     18   1
    19     18     19   2
    20     19     14   1
    21      7     14   1
    22      1     20   1
    23      2     21   1
    24      3     22   1
    25      5     23   1
    26      6     24   1
    27      9     25   1
    28     10     26   1
    29     11     27   1
    30     12     28   1
    31     13     29   1
    32     15     30   1
    33     16     31   1
    34     18     32   1
    35     19     33   1
    36     34     35   2
    37     35     36   1
    38     36     37   2
    39     37     38   1
    40     38     39   2
    41     39     34   1
    42     40     41   3
    43     37     40   1
    44     35     42   1
    45     36     43   1
    46     38     44   1
    47     39     45   1
    48     17     34   1
