# Produced with molli package
@<TRIPOS>MOLECULE
A_1_P
48 51 0 0 0
SMALL
USER_CHARGES

@<TRIPOS>ATOM
     1 C      -5.854754     4.229954     0.095255 C          1 UNL1 0.000
     2 C      -6.396717     3.088940    -0.491564 C          1 UNL1 0.000
     3 C      -5.744899     1.857371    -0.368084 C          1 UNL1 0.000
     4 C      -4.545337     1.741015     0.354210 C          1 UNL1 0.000
     5 C      -4.009614     2.911971     0.925424 C          1 UNL1 0.000
     6 C      -4.658594     4.143202     0.800372 C          1 UNL1 0.000
     7 N      -3.863458     0.475329     0.495074 N          1 UNL1 0.000
     8 C      -4.568154    -0.777213     0.639489 C          1 UNL1 0.000
     9 C      -5.823369    -0.850370     1.268533 C          1 UNL1 0.000
    10 C      -6.504041    -2.066454     1.390929 C          1 UNL1 0.000
    11 C      -5.935688    -3.238427     0.899565 C          1 UNL1 0.000
    12 C      -4.685817    -3.196654     0.290369 C          1 UNL1 0.000
    13 C      -4.009544    -1.979552     0.163379 C          1 UNL1 0.000
    14 C      -2.425691     0.473165     0.487071 C          1 UNL1 0.000
    15 C      -1.705200     0.052618     1.614170 C          1 UNL1 0.000
    16 C      -0.307958     0.093601     1.616288 C          1 UNL1 0.000
    17 C       0.396698     0.537324     0.487826 C          1 UNL1 0.000
    18 C      -0.327753     0.935214    -0.645677 C          1 UNL1 0.000
    19 C      -1.723852     0.912800    -0.644129 C          1 UNL1 0.000
    20 H      -6.361592     5.186558    -0.000451 H          1 UNL1 0.000
    21 H      -7.325795     3.155479    -1.051377 H          1 UNL1 0.000
    22 H      -6.175815     0.988400    -0.859251 H          1 UNL1 0.000
    23 H      -3.083877     2.871515     1.494546 H          1 UNL1 0.000
    24 H      -4.227844     5.030028     1.257886 H          1 UNL1 0.000
    25 H      -6.281406     0.042042     1.687936 H          1 UNL1 0.000
    26 H      -7.476484    -2.095287     1.875253 H          1 UNL1 0.000
    27 H      -6.464102    -4.183248     0.994975 H          1 UNL1 0.000
    28 H      -4.233997    -4.108269    -0.091949 H          1 UNL1 0.000
    29 H      -3.042259    -1.978802    -0.333250 H          1 UNL1 0.000
    30 H      -2.235717    -0.275679     2.504575 H          1 UNL1 0.000
    31 H       0.230922    -0.206980     2.512572 H          1 UNL1 0.000
    32 H       0.196484     1.270377    -1.538343 H          1 UNL1 0.000
    33 H      -2.268073     1.226931    -1.531422 H          1 UNL1 0.000
    34 C       1.858856     0.608012     0.493151 C          1 UNL1 0.000
    35 C       2.638751    -0.541115     0.297568 C          1 UNL1 0.000
    36 C       4.035687    -0.462653     0.271755 C          1 UNL1 0.000
    37 C       4.667731     0.768891     0.438641 C          1 UNL1 0.000
    38 C       3.903967     1.911337     0.672318 C          1 UNL1 0.000
    39 C       2.509875     1.834383     0.687319 C          1 UNL1 0.000
    40 O       6.023285     0.951688     0.434839 O          1 UNL1 0.000
    41 C       6.720109     0.154430    -0.518063 C          1 UNL1 0.000
    42 H       2.157478    -1.507097     0.158916 H          1 UNL1 0.000
    43 H       4.605627    -1.375999     0.135911 H          1 UNL1 0.000
    44 H       4.394933     2.868258     0.826621 H          1 UNL1 0.000
    45 H       1.929804     2.740093     0.852903 H          1 UNL1 0.000
    46 H       7.732236     0.559334    -0.613596 H          1 UNL1 0.000
    47 H       6.246231     0.203427    -1.505055 H          1 UNL1 0.000
    48 H       6.806470    -0.881339    -0.176273 H          1 UNL1 0.000
@<TRIPOS>BOND
     1      1      2   2
     2      2      3   1
     3      3      4   2
     4      4      5   1
     5      5      6   2
     6      6      1   1
     7      4      7   1
     8      7      8   1
     9      8      9   2
    10      9     10   1
    11     10     11   2
    12     11     12   1
    13     12     13   2
    14     13      8   1
    15     14     15   2
    16     15     16   1
    17     16     17   2
    18     17     18   1
    19     18     19   2
    20     19     14   1
    21      7     14   1
    22      1     20   1
    23      2     21   1
    24      3     22   1
    25      5     23   1
    26      6     24   1
    27      9     25   1
    28     10     26   1
    29     11     27   1
    30     12     28   1
    31     13     29   1
    32     15     30   1
    33     16     31   1
    34     18     32   1
    35     19     33   1
    36     34     35   2
    37     35     36   1
    38     36     37   2
    39     37     38   1
    40     38     39   2
    41     39     34   1
    42     40     41   1
    43     37     40   1
    44     35     42   1
    45     36     43   1
    46     38     44   1
    47     39     45   1
    48     41     46   1
    49     41     47   1
    50     41     48   1
    51     17     34   1
