# Produced with molli package
@<TRIPOS>MOLECULE
A_1_N
41 44 0 0 0
SMALL
USER_CHARGES

@<TRIPOS>ATOM
     1 C      -5.944102     4.358075     0.904928 C          1 UNL1 0.000
     2 C      -6.512313     3.221367     1.473962 C          1 UNL1 0.000
     3 C      -5.871602     1.982789     1.360751 C          1 UNL1 0.000
     4 C      -4.658096     1.852808     0.663763 C          1 UNL1 0.000
     5 C      -4.095958     3.020797     0.111911 C          1 UNL1 0.000
     6 C      -4.732710     4.259661     0.228193 C          1 UNL1 0.000
     7 N      -3.990870     0.578483     0.529661 N          1 UNL1 0.000
     8 C      -4.704504    -0.672327     0.411127 C          1 UNL1 0.000
     9 C      -5.961778    -0.750883    -0.212939 C          1 UNL1 0.000
    10 C      -6.649650    -1.965557    -0.308785 C          1 UNL1 0.000
    11 C      -6.086174    -3.131109     0.203005 C          1 UNL1 0.000
    12 C      -4.833155    -3.084938     0.805142 C          1 UNL1 0.000
    13 C      -4.149887    -1.869339     0.905713 C          1 UNL1 0.000
    14 C      -2.553509     0.557897     0.518308 C          1 UNL1 0.000
    15 C      -1.830306     0.926909     1.663103 C          1 UNL1 0.000
    16 C      -0.434272     0.905806     1.654279 C          1 UNL1 0.000
    17 C       0.252551     0.530863     0.494644 C          1 UNL1 0.000
    18 C      -0.461427     0.171334    -0.653780 C          1 UNL1 0.000
    19 C      -1.857677     0.174666    -0.638623 C          1 UNL1 0.000
    20 H      -6.441976     5.320111     0.992743 H          1 UNL1 0.000
    21 H      -7.453595     3.296117     2.012094 H          1 UNL1 0.000
    22 H      -6.324929     1.118905     1.840459 H          1 UNL1 0.000
    23 H      -3.158173     2.974451    -0.436443 H          1 UNL1 0.000
    24 H      -4.280676     5.143370    -0.214533 H          1 UNL1 0.000
    25 H      -6.415991     0.135330    -0.649060 H          1 UNL1 0.000
    26 H      -7.624239    -1.998655    -0.788669 H          1 UNL1 0.000
    27 H      -6.620280    -4.074640     0.128532 H          1 UNL1 0.000
    28 H      -4.384287    -3.991635     1.202349 H          1 UNL1 0.000
    29 H      -3.179856    -1.866068     1.396878 H          1 UNL1 0.000
    30 H      -2.360342     1.211160     2.569026 H          1 UNL1 0.000
    31 H       0.110561     1.176123     2.555650 H          1 UNL1 0.000
    32 H       0.062726    -0.102667    -1.566421 H          1 UNL1 0.000
    33 H      -2.408464    -0.096072    -1.536127 H          1 UNL1 0.000
    34 C       1.702881     0.532119     0.480681 C          1 UNL1 0.000
    35 C       2.423123    -0.644680     0.533610 C          1 UNL1 0.000
    36 S       4.113178    -0.370533     0.508715 S          1 UNL1 0.000
    37 C       3.892984     1.324188     0.427287 C          1 UNL1 0.000
    38 C       2.560468     1.673298     0.424602 C          1 UNL1 0.000
    39 H       2.043715    -1.656019     0.590876 H          1 UNL1 0.000
    40 H       4.750213     1.982026     0.386065 H          1 UNL1 0.000
    41 H       2.215105     2.699208     0.376203 H          1 UNL1 0.000
@<TRIPOS>BOND
     1      1      2   2
     2      2      3   1
     3      3      4   2
     4      4      5   1
     5      5      6   2
     6      6      1   1
     7      4      7   1
     8      7      8   1
     9      8      9   2
    10      9     10   1
    11     10     11   2
    12     11     12   1
    13     12     13   2
    14     13      8   1
    15     14     15   2
    16     15     16   1
    17     16     17   2
    18     17     18   1
    19     18     19   2
    20     19     14   1
    21      7     14   1
    22      1     20   1
    23      2     21   1
    24      3     22   1
    25      5     23   1
    26      6     24   1
    27      9     25   1
    28     10     26   1
    29     11     27   1
    30     12     28   1
    31     13     29   1
    32     15     30   1
    33     16     31   1
    34     18     32   1
    35     19     33   1
    36     34     35   2
    37     35     36   1
    38     36     37   1
    39     37     38   2
    40     38     34   1
    41     35     39   1
    42     37     40   1
    43     38     41   1
    44     17     34   1
