# Produced with molli package
@<TRIPOS>MOLECULE
A_1_T
47 50 0 0 0
SMALL
USER_CHARGES

@<TRIPOS>ATOM
     1 C      -5.862142     4.256199     0.855601 C          1 UNL1 0.000
     2 C      -6.436303     3.132126     1.442668 C          1 UNL1 0.000
     3 C      -5.798640     1.889599     1.357484 C          1 UNL1 0.000
     4 C      -4.581676     1.743087     0.668773 C          1 UNL1 0.000
     5 C      -4.014162     2.899268     0.097971 C          1 UNL1 0.000
     6 C      -4.646857     4.142119     0.187349 C          1 UNL1 0.000
     7 N      -3.914389     0.465937     0.563369 N          1 UNL1 0.000
     8 C      -4.624074    -0.788583     0.452874 C          1 UNL1 0.000
     9 C      -5.889547    -0.875064    -0.155404 C          1 UNL1 0.000
    10 C      -6.570327    -2.094458    -0.244769 C          1 UNL1 0.000
    11 C      -5.992244    -3.257581     0.254390 C          1 UNL1 0.000
    12 C      -4.731270    -3.204826     0.840182 C          1 UNL1 0.000
    13 C      -4.056887    -1.984106     0.937074 C          1 UNL1 0.000
    14 C      -2.476730     0.449096     0.568400 C          1 UNL1 0.000
    15 C      -1.767564     0.854987     1.707191 C          1 UNL1 0.000
    16 C      -0.370300     0.840877     1.711810 C          1 UNL1 0.000
    17 C       0.346579     0.438788     0.574909 C          1 UNL1 0.000
    18 C      -0.368630     0.037887    -0.563864 C          1 UNL1 0.000
    19 C      -1.766137     0.034314    -0.566003 C          1 UNL1 0.000
    20 H      -6.357221     5.221487     0.922473 H          1 UNL1 0.000
    21 H      -7.380065     3.219731     1.973993 H          1 UNL1 0.000
    22 H      -6.255605     1.036405     1.851986 H          1 UNL1 0.000
    23 H      -3.072907     2.839960    -0.443706 H          1 UNL1 0.000
    24 H      -4.189208     5.015939    -0.268528 H          1 UNL1 0.000
    25 H      -6.355597     0.007825    -0.584734 H          1 UNL1 0.000
    26 H      -7.550948    -2.132432    -0.711158 H          1 UNL1 0.000
    27 H      -6.519939    -4.205146     0.183036 H          1 UNL1 0.000
    28 H      -4.269787    -4.109562     1.226332 H          1 UNL1 0.000
    29 H      -3.080217    -1.976878     1.415361 H          1 UNL1 0.000
    30 H      -2.306301     1.163655     2.599629 H          1 UNL1 0.000
    31 H       0.159760     1.140285     2.613698 H          1 UNL1 0.000
    32 H       0.163416    -0.262356    -1.464250 H          1 UNL1 0.000
    33 H      -2.303256    -0.267087    -1.461872 H          1 UNL1 0.000
    34 C       1.812510     0.444489     0.573619 C          1 UNL1 0.000
    35 C       2.536265    -0.755993     0.561620 C          1 UNL1 0.000
    36 C       3.934476    -0.750104     0.557108 C          1 UNL1 0.000
    37 C       4.637265     0.458858     0.555261 C          1 UNL1 0.000
    38 C       3.921411     1.660675     0.572134 C          1 UNL1 0.000
    39 C       2.523817     1.652537     0.582111 C          1 UNL1 0.000
    40 C       6.136778     0.480506     0.555750 C          1 UNL1 0.000
    41 H       2.010306    -1.708536     0.564485 H          1 UNL1 0.000
    42 H       4.467045    -1.698200     0.554566 H          1 UNL1 0.000
    43 H       4.447190     2.612746     0.575000 H          1 UNL1 0.000
    44 H       1.988180     2.599631     0.587011 H          1 UNL1 0.000
    45 H       6.506375     0.885014     1.503267 H          1 UNL1 0.000
    46 H       6.506587     1.098688    -0.268790 H          1 UNL1 0.000
    47 H       6.552491    -0.524466     0.429049 H          1 UNL1 0.000
@<TRIPOS>BOND
     1      1      2   2
     2      2      3   1
     3      3      4   2
     4      4      5   1
     5      5      6   2
     6      6      1   1
     7      4      7   1
     8      7      8   1
     9      8      9   2
    10      9     10   1
    11     10     11   2
    12     11     12   1
    13     12     13   2
    14     13      8   1
    15     14     15   2
    16     15     16   1
    17     16     17   2
    18     17     18   1
    19     18     19   2
    20     19     14   1
    21      7     14   1
    22      1     20   1
    23      2     21   1
    24      3     22   1
    25      5     23   1
    26      6     24   1
    27      9     25   1
    28     10     26   1
    29     11     27   1
    30     12     28   1
    31     13     29   1
    32     15     30   1
    33     16     31   1
    34     18     32   1
    35     19     33   1
    36     34     35   2
    37     35     36   1
    38     36     37   2
    39     37     38   1
    40     38     39   2
    41     39     34   1
    42     37     40   1
    43     35     41   1
    44     36     42   1
    45     38     43   1
    46     39     44   1
    47     40     45   1
    48     40     46   1
    49     40     47   1
    50     17     34   1
