# Produced with molli package
@<TRIPOS>MOLECULE
A_1_Q
42 45 0 0 0
SMALL
USER_CHARGES

@<TRIPOS>ATOM
     1 C      -5.845953     4.355989     0.171875 C          1 UNL1 0.000
     2 C      -6.431191     3.230937    -0.403382 C          1 UNL1 0.000
     3 C      -5.800535     1.985135    -0.312950 C          1 UNL1 0.000
     4 C      -4.580932     1.836026     0.368941 C          1 UNL1 0.000
     5 C      -4.003430     2.992366     0.930514 C          1 UNL1 0.000
     6 C      -4.628517     4.238677     0.834394 C          1 UNL1 0.000
     7 N      -3.919628     0.555515     0.478695 N          1 UNL1 0.000
     8 C      -4.639969    -0.692957     0.590242 C          1 UNL1 0.000
     9 C      -5.896009    -0.771116     1.216732 C          1 UNL1 0.000
    10 C      -6.587835    -1.984212     1.306949 C          1 UNL1 0.000
    11 C      -6.029056    -3.149224     0.788805 C          1 UNL1 0.000
    12 C      -4.777677    -3.103849     0.183560 C          1 UNL1 0.000
    13 C      -4.092025    -1.889439     0.085868 C          1 UNL1 0.000
    14 C      -2.481574     0.527685     0.468941 C          1 UNL1 0.000
    15 C      -1.769139     0.044692     1.574893 C          1 UNL1 0.000
    16 C      -0.371312     0.032881     1.565197 C          1 UNL1 0.000
    17 C       0.348561     0.498259     0.452605 C          1 UNL1 0.000
    18 C      -0.373662     0.964170    -0.658981 C          1 UNL1 0.000
    19 C      -1.771095     0.985680    -0.649294 C          1 UNL1 0.000
    20 H      -6.335717     5.323557     0.100603 H          1 UNL1 0.000
    21 H      -7.378262     3.320684    -0.929006 H          1 UNL1 0.000
    22 H      -6.266912     1.131453    -0.798276 H          1 UNL1 0.000
    23 H      -3.061242     2.929862     1.469838 H          1 UNL1 0.000
    24 H      -4.163160     5.112963     1.281960 H          1 UNL1 0.000
    25 H      -6.346478     0.113405     1.659810 H          1 UNL1 0.000
    26 H      -7.561571    -2.016767     1.788596 H          1 UNL1 0.000
    27 H      -6.565059    -4.091804     0.861086 H          1 UNL1 0.000
    28 H      -4.330947    -4.009977    -0.217373 H          1 UNL1 0.000
    29 H      -3.122913    -1.887528    -0.407795 H          1 UNL1 0.000
    30 H      -2.304098    -0.305491     2.454347 H          1 UNL1 0.000
    31 H       0.162082    -0.337491     2.439267 H          1 UNL1 0.000
    32 H       0.147658     1.296590    -1.554635 H          1 UNL1 0.000
    33 H      -2.310618     1.337052    -1.525795 H          1 UNL1 0.000
    34 C       1.813330     0.496056     0.457272 C          1 UNL1 0.000
    35 N       2.417665    -0.696830     0.696244 N          1 UNL1 0.000
    36 C       3.770607    -0.688072     0.678265 C          1 UNL1 0.000
    37 C       4.506087     0.462198     0.449831 C          1 UNL1 0.000
    38 N       3.923413     1.660055     0.225336 N          1 UNL1 0.000
    39 C       2.567024     1.647585     0.233352 C          1 UNL1 0.000
    40 H       4.252929    -1.643356     0.851589 H          1 UNL1 0.000
    41 H       5.589789     0.450435     0.441465 H          1 UNL1 0.000
    42 H       2.093957     2.609421     0.063486 H          1 UNL1 0.000
@<TRIPOS>BOND
     1      1      2   2
     2      2      3   1
     3      3      4   2
     4      4      5   1
     5      5      6   2
     6      6      1   1
     7      4      7   1
     8      7      8   1
     9      8      9   2
    10      9     10   1
    11     10     11   2
    12     11     12   1
    13     12     13   2
    14     13      8   1
    15     14     15   2
    16     15     16   1
    17     16     17   2
    18     17     18   1
    19     18     19   2
    20     19     14   1
    21      7     14   1
    22      1     20   1
    23      2     21   1
    24      3     22   1
    25      5     23   1
    26      6     24   1
    27      9     25   1
    28     10     26   1
    29     11     27   1
    30     12     28   1
    31     13     29   1
    32     15     30   1
    33     16     31   1
    34     18     32   1
    35     19     33   1
    36     34     35   2
    37     35     36   1
    38     36     37   2
    39     37     38   1
    40     38     39   2
    41     39     34   1
    42     36     40   1
    43     37     41   1
    44     39     42   1
    45     17     34   1
