# Produced with molli package
@<TRIPOS>MOLECULE
A_1_L
48 52 0 0 0
SMALL
USER_CHARGES

@<TRIPOS>ATOM
     1 C      -5.872583     4.275959     0.760970 C          1 UNL1 0.000
     2 C      -6.476566     3.139766     1.291195 C          1 UNL1 0.000
     3 C      -5.820140     1.903188     1.243710 C          1 UNL1 0.000
     4 C      -4.561562     1.765475     0.634053 C          1 UNL1 0.000
     5 C      -3.963568     2.940011     0.129784 C          1 UNL1 0.000
     6 C      -4.608986     4.179097     0.191030 C          1 UNL1 0.000
     7 N      -3.876737     0.492314     0.548276 N          1 UNL1 0.000
     8 C      -4.544496    -0.791138     0.466478 C          1 UNL1 0.000
     9 C      -5.845125    -0.932788    -0.047310 C          1 UNL1 0.000
    10 C      -6.481994    -2.179869    -0.093547 C          1 UNL1 0.000
    11 C      -5.818008    -3.323644     0.338456 C          1 UNL1 0.000
    12 C      -4.515487    -3.222787     0.811071 C          1 UNL1 0.000
    13 C      -3.889913    -1.973304     0.874862 C          1 UNL1 0.000
    14 C      -2.438494     0.507058     0.546129 C          1 UNL1 0.000
    15 C      -1.732730     0.713862     1.739330 C          1 UNL1 0.000
    16 C      -0.336302     0.715632     1.738510 C          1 UNL1 0.000
    17 C       0.378717     0.533570     0.545125 C          1 UNL1 0.000
    18 C      -0.333665     0.337917    -0.647738 C          1 UNL1 0.000
    19 C      -1.729887     0.313064    -0.647563 C          1 UNL1 0.000
    20 H      -6.380303     5.235907     0.800379 H          1 UNL1 0.000
    21 H      -7.458764     3.213217     1.750764 H          1 UNL1 0.000
    22 H      -6.305274     1.049533     1.709112 H          1 UNL1 0.000
    23 H      -2.981939     2.906265    -0.336147 H          1 UNL1 0.000
    24 H      -4.120475     5.062716    -0.211413 H          1 UNL1 0.000
    25 H      -6.383376    -0.074349    -0.439226 H          1 UNL1 0.000
    26 H      -7.496506    -2.254553    -0.476380 H          1 UNL1 0.000
    27 H      -6.309945    -4.291664     0.297779 H          1 UNL1 0.000
    28 H      -3.980318    -4.111562     1.135115 H          1 UNL1 0.000
    29 H      -2.875125    -1.940502     1.263527 H          1 UNL1 0.000
    30 H      -2.274646     0.852316     2.671337 H          1 UNL1 0.000
    31 H       0.196210     0.857222     2.676764 H          1 UNL1 0.000
    32 H       0.200719     0.208892    -1.586692 H          1 UNL1 0.000
    33 H      -2.270068     0.164594    -1.579012 H          1 UNL1 0.000
    34 C       1.843140     0.550036     0.544362 C          1 UNL1 0.000
    35 C       2.567717    -0.649691     0.567864 C          1 UNL1 0.000
    36 C       3.967440    -0.665579     0.569355 C          1 UNL1 0.000
    37 C       4.626566     0.567094     0.542935 C          1 UNL1 0.000
    38 C       3.945987     1.784042     0.517283 C          1 UNL1 0.000
    39 C       2.537483     1.773392     0.519913 C          1 UNL1 0.000
    40 N       5.972011     0.857171     0.536366 N          1 UNL1 0.000
    41 C       6.165397     2.212441     0.504329 C          1 UNL1 0.000
    42 C       4.926812     2.813278     0.491943 C          1 UNL1 0.000
    43 H       2.034020    -1.598764     0.589502 H          1 UNL1 0.000
    44 H       4.512299    -1.603603     0.590295 H          1 UNL1 0.000
    45 H       1.991131     2.712742     0.498775 H          1 UNL1 0.000
    46 H       6.707337     0.162973     0.551893 H          1 UNL1 0.000
    47 H       7.162162     2.631283     0.493188 H          1 UNL1 0.000
    48 H       4.742309     3.878984     0.467001 H          1 UNL1 0.000
@<TRIPOS>BOND
     1      1      2   2
     2      2      3   1
     3      3      4   2
     4      4      5   1
     5      5      6   2
     6      6      1   1
     7      4      7   1
     8      7      8   1
     9      8      9   2
    10      9     10   1
    11     10     11   2
    12     11     12   1
    13     12     13   2
    14     13      8   1
    15     14     15   2
    16     15     16   1
    17     16     17   2
    18     17     18   1
    19     18     19   2
    20     19     14   1
    21      7     14   1
    22      1     20   1
    23      2     21   1
    24      3     22   1
    25      5     23   1
    26      6     24   1
    27      9     25   1
    28     10     26   1
    29     11     27   1
    30     12     28   1
    31     13     29   1
    32     15     30   1
    33     16     31   1
    34     18     32   1
    35     19     33   1
    36     34     35   2
    37     35     36   1
    38     36     37   2
    39     37     38   1
    40     38     39   2
    41     39     34   1
    42     37     40   1
    43     40     41   1
    44     41     42   2
    45     42     38   1
    46     35     43   1
    47     36     44   1
    48     39     45   1
    49     40     46   1
    50     41     47   1
    51     42     48   1
    52     17     34   1
