# Produced with molli package
@<TRIPOS>MOLECULE
A_1_R
45 48 0 0 0
SMALL
USER_CHARGES

@<TRIPOS>ATOM
     1 C      -5.936067     4.195679     0.949749 C          1 UNL1 0.000
     2 C      -6.476694     3.005169     1.427987 C          1 UNL1 0.000
     3 C      -5.783817     1.800847     1.262326 C          1 UNL1 0.000
     4 C      -4.545210     1.758663     0.599195 C          1 UNL1 0.000
     5 C      -4.015474     2.979249     0.134874 C          1 UNL1 0.000
     6 C      -4.702002     4.184567     0.308072 C          1 UNL1 0.000
     7 N      -3.820881     0.521494     0.412465 N          1 UNL1 0.000
     8 C      -4.480425    -0.754655     0.251564 C          1 UNL1 0.000
     9 C      -5.715523    -0.871556    -0.408987 C          1 UNL1 0.000
    10 C      -6.350072    -2.111298    -0.543856 C          1 UNL1 0.000
    11 C      -5.753327    -3.262394    -0.036294 C          1 UNL1 0.000
    12 C      -4.520197    -3.176916     0.601571 C          1 UNL1 0.000
    13 C      -3.891122    -1.936764     0.742515 C          1 UNL1 0.000
    14 C      -2.382644     0.556782     0.414995 C          1 UNL1 0.000
    15 C      -1.685019     1.005556     1.545090 C          1 UNL1 0.000
    16 C      -0.287788     1.028314     1.552160 C          1 UNL1 0.000
    17 C       0.446035     0.615794     0.427612 C          1 UNL1 0.000
    18 C      -0.259032     0.164967    -0.699447 C          1 UNL1 0.000
    19 C      -1.656674     0.133181    -0.706944 C          1 UNL1 0.000
    20 H      -6.473869     5.131032     1.080128 H          1 UNL1 0.000
    21 H      -7.437315     3.010529     1.936441 H          1 UNL1 0.000
    22 H      -6.218627     0.894013     1.675125 H          1 UNL1 0.000
    23 H      -3.061868     3.001714    -0.387175 H          1 UNL1 0.000
    24 H      -4.271448     5.110579    -0.063826 H          1 UNL1 0.000
    25 H      -6.192491     0.004230    -0.841713 H          1 UNL1 0.000
    26 H      -7.309205    -2.175651    -1.050917 H          1 UNL1 0.000
    27 H      -6.245683    -4.225462    -0.141863 H          1 UNL1 0.000
    28 H      -4.044548    -4.071618     0.994833 H          1 UNL1 0.000
    29 H      -2.935478    -1.902322     1.260669 H          1 UNL1 0.000
    30 H      -2.233100     1.310321     2.433505 H          1 UNL1 0.000
    31 H       0.226581     1.349624     2.455491 H          1 UNL1 0.000
    32 H       0.284226    -0.164683    -1.583253 H          1 UNL1 0.000
    33 H      -2.181833    -0.209841    -1.595162 H          1 UNL1 0.000
    34 C       1.911390     0.647258     0.431156 C          1 UNL1 0.000
    35 N       2.529510    -0.548225     0.247811 N          1 UNL1 0.000
    36 C       3.885416    -0.569870     0.279762 C          1 UNL1 0.000
    37 C       4.653701     0.565840     0.473332 C          1 UNL1 0.000
    38 C       4.016778     1.795565     0.640402 C          1 UNL1 0.000
    39 C       2.622633     1.833394     0.621723 C          1 UNL1 0.000
    40 N       6.103336     0.462807     0.506307 N          1 UNL1 0.000
    41 O       6.737785     1.442036     0.922011 O          1 UNL1 0.000
    42 O       6.614745    -0.596481     0.117907 O          1 UNL1 0.000
    43 H       4.322371    -1.556816     0.148586 H          1 UNL1 0.000
    44 H       4.579457     2.714730     0.783663 H          1 UNL1 0.000
    45 H       2.099198     2.777372     0.745674 H          1 UNL1 0.000
@<TRIPOS>BOND
     1      1      2   2
     2      2      3   1
     3      3      4   2
     4      4      5   1
     5      5      6   2
     6      6      1   1
     7      4      7   1
     8      7      8   1
     9      8      9   2
    10      9     10   1
    11     10     11   2
    12     11     12   1
    13     12     13   2
    14     13      8   1
    15     14     15   2
    16     15     16   1
    17     16     17   2
    18     17     18   1
    19     18     19   2
    20     19     14   1
    21      7     14   1
    22      1     20   1
    23      2     21   1
    24      3     22   1
    25      5     23   1
    26      6     24   1
    27      9     25   1
    28     10     26   1
    29     11     27   1
    30     12     28   1
    31     13     29   1
    32     15     30   1
    33     16     31   1
    34     18     32   1
    35     19     33   1
    36     34     35   2
    37     35     36   1
    38     36     37   2
    39     37     38   1
    40     38     39   2
    41     39     34   1
    42     40     41   2
    43     40     42   1
    44     37     40   1
    45     36     43   1
    46     38     44   1
    47     39     45   1
    48     17     34   1
