# Produced with molli package
@<TRIPOS>MOLECULE
A_1_O
43 46 0 0 0
SMALL
USER_CHARGES

@<TRIPOS>ATOM
     1 C      -5.963288     4.331172     0.228151 C          1 UNL1 0.000
     2 C      -6.559467     3.184535    -0.289366 C          1 UNL1 0.000
     3 C      -5.905622     1.950134    -0.202709 C          1 UNL1 0.000
     4 C      -4.651145     1.831748     0.420168 C          1 UNL1 0.000
     5 C      -4.065675     3.010512     0.925142 C          1 UNL1 0.000
     6 C      -4.712708     4.246084     0.830396 C          1 UNL1 0.000
     7 N      -3.965264     0.562910     0.523667 N          1 UNL1 0.000
     8 C      -4.657536    -0.702154     0.609394 C          1 UNL1 0.000
     9 C      -5.885850    -0.830498     1.280389 C          1 UNL1 0.000
    10 C      -6.553184    -2.058870     1.340816 C          1 UNL1 0.000
    11 C      -5.996725    -3.188005     0.745745 C          1 UNL1 0.000
    12 C      -4.770017    -3.092626     0.096760 C          1 UNL1 0.000
    13 C      -4.107192    -1.863665     0.032419 C          1 UNL1 0.000
    14 C      -2.527084     0.557381     0.527675 C          1 UNL1 0.000
    15 C      -1.821135     0.127901     1.659752 C          1 UNL1 0.000
    16 C      -0.423355     0.151230     1.670996 C          1 UNL1 0.000
    17 C       0.297476     0.594232     0.551068 C          1 UNL1 0.000
    18 C      -0.415691     0.999928    -0.587930 C          1 UNL1 0.000
    19 C      -1.812962     0.989682    -0.598651 C          1 UNL1 0.000
    20 H      -6.469932     5.289975     0.157985 H          1 UNL1 0.000
    21 H      -7.533031     3.247817    -0.768341 H          1 UNL1 0.000
    22 H      -6.384428     1.081340    -0.647110 H          1 UNL1 0.000
    23 H      -3.096390     2.977324     1.416924 H          1 UNL1 0.000
    24 H      -4.237199     5.137254     1.231455 H          1 UNL1 0.000
    25 H      -6.330753     0.026307     1.779997 H          1 UNL1 0.000
    26 H      -7.506022    -2.131927     1.858399 H          1 UNL1 0.000
    27 H      -6.514705    -4.142201     0.792544 H          1 UNL1 0.000
    28 H      -4.325140    -3.970665    -0.364189 H          1 UNL1 0.000
    29 H      -3.156719    -1.819764    -0.494523 H          1 UNL1 0.000
    30 H      -2.361306    -0.203188     2.543101 H          1 UNL1 0.000
    31 H       0.108665    -0.172332     2.563409 H          1 UNL1 0.000
    32 H       0.118025     1.315175    -1.482094 H          1 UNL1 0.000
    33 H      -2.348143     1.299198    -1.492710 H          1 UNL1 0.000
    34 C       1.761437     0.641578     0.576432 C          1 UNL1 0.000
    35 N       2.392420    -0.556128     0.601936 N          1 UNL1 0.000
    36 C       3.744116    -0.543955     0.609045 C          1 UNL1 0.000
    37 C       4.504712     0.613357     0.608134 C          1 UNL1 0.000
    38 C       3.843782     1.833886     0.596415 C          1 UNL1 0.000
    39 C       2.451152     1.853177     0.575697 C          1 UNL1 0.000
    40 H       4.213567    -1.522791     0.614564 H          1 UNL1 0.000
    41 H       5.588168     0.562438     0.617731 H          1 UNL1 0.000
    42 H       4.403571     2.764659     0.603197 H          1 UNL1 0.000
    43 H       1.914686     2.795714     0.569911 H          1 UNL1 0.000
@<TRIPOS>BOND
     1      1      2   2
     2      2      3   1
     3      3      4   2
     4      4      5   1
     5      5      6   2
     6      6      1   1
     7      4      7   1
     8      7      8   1
     9      8      9   2
    10      9     10   1
    11     10     11   2
    12     11     12   1
    13     12     13   2
    14     13      8   1
    15     14     15   2
    16     15     16   1
    17     16     17   2
    18     17     18   1
    19     18     19   2
    20     19     14   1
    21      7     14   1
    22      1     20   1
    23      2     21   1
    24      3     22   1
    25      5     23   1
    26      6     24   1
    27      9     25   1
    28     10     26   1
    29     11     27   1
    30     12     28   1
    31     13     29   1
    32     15     30   1
    33     16     31   1
    34     18     32   1
    35     19     33   1
    36     34     35   2
    37     35     36   1
    38     36     37   2
    39     37     38   1
    40     38     39   2
    41     39     34   1
    42     36     40   1
    43     37     41   1
    44     38     42   1
    45     39     43   1
    46     17     34   1
