# Produced with molli package
@<TRIPOS>MOLECULE
A_2_K
46 49 0 0 0
SMALL
USER_CHARGES

@<TRIPOS>ATOM
     1 C      -3.697036     4.289638     1.448649 C          1 UNL1 0.000
     2 C      -4.280624     3.160649     0.881203 C          1 UNL1 0.000
     3 C      -3.644071     1.917672     0.973587 C          1 UNL1 0.000
     4 C      -2.423264     1.770273     1.655816 C          1 UNL1 0.000
     5 C      -1.843652     2.934047     2.199371 C          1 UNL1 0.000
     6 C      -2.473764     4.178671     2.100635 C          1 UNL1 0.000
     7 N      -1.756652     0.489446     1.755953 N          1 UNL1 0.000
     8 C      -2.459627    -0.767490     1.911123 C          1 UNL1 0.000
     9 C      -3.762818    -0.835801     2.435342 C          1 UNL1 0.000
    10 C      -4.446614    -2.053225     2.542101 C          1 UNL1 0.000
    11 C      -3.831848    -3.238454     2.152502 C          1 UNL1 0.000
    12 C      -2.527628    -3.209256     1.674776 C          1 UNL1 0.000
    13 C      -1.850068    -1.990605     1.565365 C          1 UNL1 0.000
    14 C      -0.311886     0.478210     1.710589 C          1 UNL1 0.000
    15 C       0.396249     0.378410     2.924736 C          1 UNL1 0.000
    16 C       1.789397     0.385223     2.938428 C          1 UNL1 0.000
    17 C       2.492653     0.478103     1.741098 C          1 UNL1 0.000
    18 C       1.804871     0.554386     0.527225 C          1 UNL1 0.000
    19 C       0.398502     0.552364     0.485034 C          1 UNL1 0.000
    20 H      -4.191046     5.255180     1.377547 H          1 UNL1 0.000
    21 H      -5.230484     3.244739     0.359508 H          1 UNL1 0.000
    22 H      -4.105286     1.063711     0.483718 H          1 UNL1 0.000
    23 H      -0.894146     2.886347     2.725475 H          1 UNL1 0.000
    24 H      -2.006685     5.057397     2.538107 H          1 UNL1 0.000
    25 H      -4.267415     0.060383     2.786093 H          1 UNL1 0.000
    26 H      -5.459960    -2.071068     2.934712 H          1 UNL1 0.000
    27 H      -4.363085    -4.182997     2.231567 H          1 UNL1 0.000
    28 H      -2.031804    -4.131272     1.382894 H          1 UNL1 0.000
    29 H      -0.832323    -2.017072     1.188498 H          1 UNL1 0.000
    30 H      -0.152438     0.308704     3.861325 H          1 UNL1 0.000
    31 H       2.323595     0.318617     3.882628 H          1 UNL1 0.000
    32 H       3.579913     0.480661     1.748628 H          1 UNL1 0.000
    33 H       2.374967     0.604850    -0.398852 H          1 UNL1 0.000
    34 C      -0.276320     0.543651    -0.822691 C          1 UNL1 0.000
    35 C      -0.798463     1.720332    -1.383231 C          1 UNL1 0.000
    36 C      -1.464940     1.694087    -2.612012 C          1 UNL1 0.000
    37 C      -1.607688     0.476805    -3.286324 C          1 UNL1 0.000
    38 C      -1.081626    -0.705206    -2.759770 C          1 UNL1 0.000
    39 C      -0.411053    -0.662252    -1.536253 C          1 UNL1 0.000
    40 N      -2.318733     0.438866    -4.561527 N          1 UNL1 0.000
    41 O      -2.280198     1.453691    -5.269379 O          1 UNL1 0.000
    42 O      -2.912101    -0.610419    -4.854572 O          1 UNL1 0.000
    43 H      -0.704692     2.664494    -0.848913 H          1 UNL1 0.000
    44 H      -1.875536     2.615715    -3.017653 H          1 UNL1 0.000
    45 H      -1.186922    -1.653957    -3.281137 H          1 UNL1 0.000
    46 H      -0.003317    -1.584324    -1.125593 H          1 UNL1 0.000
@<TRIPOS>BOND
     1      1      2   2
     2      2      3   1
     3      3      4   2
     4      4      5   1
     5      5      6   2
     6      6      1   1
     7      4      7   1
     8      7      8   1
     9      8      9   2
    10      9     10   1
    11     10     11   2
    12     11     12   1
    13     12     13   2
    14     13      8   1
    15     14     15   2
    16     15     16   1
    17     16     17   2
    18     17     18   1
    19     18     19   2
    20     19     14   1
    21      7     14   1
    22      1     20   1
    23      2     21   1
    24      3     22   1
    25      5     23   1
    26      6     24   1
    27      9     25   1
    28     10     26   1
    29     11     27   1
    30     12     28   1
    31     13     29   1
    32     15     30   1
    33     16     31   1
    34     17     32   1
    35     18     33   1
    36     34     35   2
    37     35     36   1
    38     36     37   2
    39     37     38   1
    40     38     39   2
    41     39     34   1
    42     40     41   2
    43     40     42   1
    44     37     40   1
    45     35     43   1
    46     36     44   1
    47     38     45   1
    48     39     46   1
    49     19     34   1
