# Produced with molli package
@<TRIPOS>MOLECULE
A_2_R
45 48 0 0 0
SMALL
USER_CHARGES

@<TRIPOS>ATOM
     1 C      -3.837923     4.250850     2.342601 C          1 UNL1 0.000
     2 C      -4.439270     3.072496     2.772317 C          1 UNL1 0.000
     3 C      -3.773128     1.849603     2.629861 C          1 UNL1 0.000
     4 C      -2.503038     1.769956     2.031215 C          1 UNL1 0.000
     5 C      -1.904576     2.984515     1.640567 C          1 UNL1 0.000
     6 C      -2.564782     4.208949     1.786483 C          1 UNL1 0.000
     7 N      -1.820904     0.507349     1.844689 N          1 UNL1 0.000
     8 C      -2.510377    -0.762462     1.734316 C          1 UNL1 0.000
     9 C      -3.766015    -0.871716     1.109735 C          1 UNL1 0.000
    10 C      -4.426950    -2.101805     1.011753 C          1 UNL1 0.000
    11 C      -3.835415    -3.256093     1.516235 C          1 UNL1 0.000
    12 C      -2.580077    -3.182954     2.109690 C          1 UNL1 0.000
    13 C      -1.925058    -1.951444     2.213572 C          1 UNL1 0.000
    14 C      -0.375807     0.496907     1.805013 C          1 UNL1 0.000
    15 C       0.327184     0.598550     3.022825 C          1 UNL1 0.000
    16 C       1.719976     0.563935     3.046708 C          1 UNL1 0.000
    17 C       2.429383     0.438729     1.856303 C          1 UNL1 0.000
    18 C       1.747518     0.360521     0.639297 C          1 UNL1 0.000
    19 C       0.340562     0.393706     0.586350 C          1 UNL1 0.000
    20 H      -4.355274     5.200206     2.451569 H          1 UNL1 0.000
    21 H      -5.427091     3.099866     3.224971 H          1 UNL1 0.000
    22 H      -4.261238     0.956672     3.011992 H          1 UNL1 0.000
    23 H      -0.912097     2.997943     1.201316 H          1 UNL1 0.000
    24 H      -2.080506     5.126638     1.463311 H          1 UNL1 0.000
    25 H      -4.235581     0.001568     0.665530 H          1 UNL1 0.000
    26 H      -5.399482    -2.156755     0.530152 H          1 UNL1 0.000
    27 H      -4.344558    -4.212593     1.435440 H          1 UNL1 0.000
    28 H      -2.102223    -4.081817     2.490161 H          1 UNL1 0.000
    29 H      -0.946132    -1.937124     2.684172 H          1 UNL1 0.000
    30 H      -0.226213     0.684985     3.955331 H          1 UNL1 0.000
    31 H       2.248505     0.627136     3.994334 H          1 UNL1 0.000
    32 H       3.516047     0.406094     1.872074 H          1 UNL1 0.000
    33 H       2.321931     0.273698    -0.281393 H          1 UNL1 0.000
    34 C      -0.328007     0.410064    -0.719841 C          1 UNL1 0.000
    35 N      -0.927859    -0.740729    -1.113172 N          1 UNL1 0.000
    36 C      -1.609843    -0.728168    -2.284766 C          1 UNL1 0.000
    37 C      -1.674347     0.384597    -3.106476 C          1 UNL1 0.000
    38 C      -1.016330     1.552530    -2.726141 C          1 UNL1 0.000
    39 C      -0.335871     1.563282    -1.510208 C          1 UNL1 0.000
    40 N      -2.420470     0.321558    -4.349538 N          1 UNL1 0.000
    41 O      -2.131242     1.145164    -5.230877 O          1 UNL1 0.000
    42 O      -3.297593    -0.544814    -4.452375 O          1 UNL1 0.000
    43 H      -2.102894    -1.665387    -2.528898 H          1 UNL1 0.000
    44 H      -1.037715     2.446986    -3.343524 H          1 UNL1 0.000
    45 H       0.168152     2.464932    -1.174551 H          1 UNL1 0.000
@<TRIPOS>BOND
     1      1      2   2
     2      2      3   1
     3      3      4   2
     4      4      5   1
     5      5      6   2
     6      6      1   1
     7      4      7   1
     8      7      8   1
     9      8      9   2
    10      9     10   1
    11     10     11   2
    12     11     12   1
    13     12     13   2
    14     13      8   1
    15     14     15   2
    16     15     16   1
    17     16     17   2
    18     17     18   1
    19     18     19   2
    20     19     14   1
    21      7     14   1
    22      1     20   1
    23      2     21   1
    24      3     22   1
    25      5     23   1
    26      6     24   1
    27      9     25   1
    28     10     26   1
    29     11     27   1
    30     12     28   1
    31     13     29   1
    32     15     30   1
    33     16     31   1
    34     17     32   1
    35     18     33   1
    36     34     35   2
    37     35     36   1
    38     36     37   2
    39     37     38   1
    40     38     39   2
    41     39     34   1
    42     40     41   2
    43     40     42   1
    44     37     40   1
    45     36     43   1
    46     38     44   1
    47     39     45   1
    48     19     34   1
