# Produced with molli package
@<TRIPOS>MOLECULE
A_2_P
48 51 0 0 0
SMALL
USER_CHARGES

@<TRIPOS>ATOM
     1 C      -3.842656     4.366710     2.351293 C          1 UNL1 0.000
     2 C      -4.464963     3.170847     2.694618 C          1 UNL1 0.000
     3 C      -3.798610     1.953454     2.513446 C          1 UNL1 0.000
     4 C      -2.503251     1.899747     1.967744 C          1 UNL1 0.000
     5 C      -1.888184     3.128530     1.656840 C          1 UNL1 0.000
     6 C      -2.550134     4.346912     1.839530 C          1 UNL1 0.000
     7 N      -1.817067     0.645220     1.751918 N          1 UNL1 0.000
     8 C      -2.510775    -0.612948     1.603275 C          1 UNL1 0.000
     9 C      -3.687751    -0.716403     0.842449 C          1 UNL1 0.000
    10 C      -4.352521    -1.938866     0.703180 C          1 UNL1 0.000
    11 C      -3.844886    -3.084477     1.310737 C          1 UNL1 0.000
    12 C      -2.667624    -3.011738     2.049233 C          1 UNL1 0.000
    13 C      -2.005070    -1.789029     2.189274 C          1 UNL1 0.000
    14 C      -0.373931     0.625703     1.705714 C          1 UNL1 0.000
    15 C       0.341586     0.809005     2.906258 C          1 UNL1 0.000
    16 C       1.734294     0.756888     2.921240 C          1 UNL1 0.000
    17 C       2.431181     0.531740     1.738376 C          1 UNL1 0.000
    18 C       1.736888     0.368096     0.537381 C          1 UNL1 0.000
    19 C       0.330850     0.415603     0.494661 C          1 UNL1 0.000
    20 H      -4.360718     5.311800     2.488971 H          1 UNL1 0.000
    21 H      -5.470119     3.179649     3.107881 H          1 UNL1 0.000
    22 H      -4.306800     1.043527     2.821774 H          1 UNL1 0.000
    23 H      -0.881519     3.155390     1.249300 H          1 UNL1 0.000
    24 H      -2.052390     5.276689     1.577477 H          1 UNL1 0.000
    25 H      -4.081951     0.155811     0.326653 H          1 UNL1 0.000
    26 H      -5.261872    -1.994477     0.110743 H          1 UNL1 0.000
    27 H      -4.361516    -4.034312     1.201783 H          1 UNL1 0.000
    28 H      -2.261993    -3.903664     2.519238 H          1 UNL1 0.000
    29 H      -1.092987    -1.761025     2.779519 H          1 UNL1 0.000
    30 H      -0.201210     0.974019     3.834067 H          1 UNL1 0.000
    31 H       2.272771     0.887974     3.856135 H          1 UNL1 0.000
    32 H       3.517460     0.491343     1.745134 H          1 UNL1 0.000
    33 H       2.299854     0.213914    -0.381624 H          1 UNL1 0.000
    34 C      -0.338507     0.315759    -0.811396 C          1 UNL1 0.000
    35 C      -0.664729     1.476053    -1.532330 C          1 UNL1 0.000
    36 C      -1.267028     1.397583    -2.792185 C          1 UNL1 0.000
    37 C      -1.540065     0.154193    -3.355596 C          1 UNL1 0.000
    38 C      -1.250495    -1.006255    -2.636913 C          1 UNL1 0.000
    39 C      -0.641979    -0.926904    -1.380228 C          1 UNL1 0.000
    40 O      -2.120416    -0.034129    -4.580647 O          1 UNL1 0.000
    41 C      -1.758295     0.932254    -5.562850 C          1 UNL1 0.000
    42 H      -0.451463     2.454949    -1.111086 H          1 UNL1 0.000
    43 H      -1.524605     2.321206    -3.300115 H          1 UNL1 0.000
    44 H      -1.487036    -1.977532    -3.060978 H          1 UNL1 0.000
    45 H      -0.416319    -1.844171    -0.840472 H          1 UNL1 0.000
    46 H      -2.082654     0.554803    -6.537415 H          1 UNL1 0.000
    47 H      -0.672137     1.072767    -5.604132 H          1 UNL1 0.000
    48 H      -2.269829     1.883868    -5.388666 H          1 UNL1 0.000
@<TRIPOS>BOND
     1      1      2   2
     2      2      3   1
     3      3      4   2
     4      4      5   1
     5      5      6   2
     6      6      1   1
     7      4      7   1
     8      7      8   1
     9      8      9   2
    10      9     10   1
    11     10     11   2
    12     11     12   1
    13     12     13   2
    14     13      8   1
    15     14     15   2
    16     15     16   1
    17     16     17   2
    18     17     18   1
    19     18     19   2
    20     19     14   1
    21      7     14   1
    22      1     20   1
    23      2     21   1
    24      3     22   1
    25      5     23   1
    26      6     24   1
    27      9     25   1
    28     10     26   1
    29     11     27   1
    30     12     28   1
    31     13     29   1
    32     15     30   1
    33     16     31   1
    34     17     32   1
    35     18     33   1
    36     34     35   2
    37     35     36   1
    38     36     37   2
    39     37     38   1
    40     38     39   2
    41     39     34   1
    42     40     41   1
    43     37     40   1
    44     35     42   1
    45     36     43   1
    46     38     44   1
    47     39     45   1
    48     41     46   1
    49     41     47   1
    50     41     48   1
    51     19     34   1
