# Produced with molli package
@<TRIPOS>MOLECULE
A_2_M
45 48 0 0 0
SMALL
USER_CHARGES

@<TRIPOS>ATOM
     1 C      -3.773505     4.418768     1.900557 C          1 UNL1 0.000
     2 C      -4.486150     3.258572     2.180811 C          1 UNL1 0.000
     3 C      -3.841713     2.010265     2.200422 C          1 UNL1 0.000
     4 C      -2.484518     1.873405     1.873305 C          1 UNL1 0.000
     5 C      -1.780589     3.085721     1.669022 C          1 UNL1 0.000
     6 C      -2.409470     4.335649     1.672825 C          1 UNL1 0.000
     7 N      -1.797593     0.593350     1.764230 N          1 UNL1 0.000
     8 C      -2.418673    -0.722237     1.694409 C          1 UNL1 0.000
     9 C      -3.727958    -0.944113     1.241338 C          1 UNL1 0.000
    10 C      -4.302726    -2.225593     1.239944 C          1 UNL1 0.000
    11 C      -3.557953    -3.334790     1.625380 C          1 UNL1 0.000
    12 C      -2.235137    -3.165082     2.004306 C          1 UNL1 0.000
    13 C      -1.681372    -1.880319     2.043896 C          1 UNL1 0.000
    14 C      -0.348806     0.623954     1.690304 C          1 UNL1 0.000
    15 C       0.380190     0.687650     2.895890 C          1 UNL1 0.000
    16 C       1.772143     0.678601     2.881576 C          1 UNL1 0.000
    17 C       2.450198     0.621968     1.666853 C          1 UNL1 0.000
    18 C       1.739495     0.576342     0.463220 C          1 UNL1 0.000
    19 C       0.333626     0.575945     0.447115 C          1 UNL1 0.000
    20 H      -4.273365     5.383167     1.882082 H          1 UNL1 0.000
    21 H      -5.550850     3.319350     2.392321 H          1 UNL1 0.000
    22 H      -4.440761     1.157703     2.498837 H          1 UNL1 0.000
    23 H      -0.709740     3.086458     1.483293 H          1 UNL1 0.000
    24 H      -1.826272     5.234384     1.489908 H          1 UNL1 0.000
    25 H      -4.330547    -0.134578     0.844436 H          1 UNL1 0.000
    26 H      -5.334301    -2.354448     0.921680 H          1 UNL1 0.000
    27 H      -4.000241    -4.327238     1.613694 H          1 UNL1 0.000
    28 H      -1.627245    -4.024217     2.276181 H          1 UNL1 0.000
    29 H      -0.644522    -1.808745     2.361044 H          1 UNL1 0.000
    30 H      -0.152934     0.722528     3.843418 H          1 UNL1 0.000
    31 H       2.324863     0.711141     3.816838 H          1 UNL1 0.000
    32 H       3.537405     0.616439     1.653483 H          1 UNL1 0.000
    33 H       2.291840     0.545743    -0.474228 H          1 UNL1 0.000
    34 C      -0.372993     0.553109    -0.844019 C          1 UNL1 0.000
    35 C      -0.857880     1.738033    -1.421053 C          1 UNL1 0.000
    36 C      -1.558869     1.719469    -2.629737 C          1 UNL1 0.000
    37 C      -1.766568     0.510839    -3.295839 C          1 UNL1 0.000
    38 C      -1.266952    -0.674489    -2.748824 C          1 UNL1 0.000
    39 C      -0.577060    -0.651914    -1.531421 C          1 UNL1 0.000
    40 C      -2.489418     0.489637    -4.534553 C          1 UNL1 0.000
    41 N      -3.072313     0.477688    -5.536410 N          1 UNL1 0.000
    42 H      -0.703050     2.691812    -0.922926 H          1 UNL1 0.000
    43 H      -1.942358     2.652978    -3.037021 H          1 UNL1 0.000
    44 H      -1.417661    -1.624471    -3.257310 H          1 UNL1 0.000
    45 H      -0.211076    -1.585950    -1.109314 H          1 UNL1 0.000
@<TRIPOS>BOND
     1      1      2   2
     2      2      3   1
     3      3      4   2
     4      4      5   1
     5      5      6   2
     6      6      1   1
     7      4      7   1
     8      7      8   1
     9      8      9   2
    10      9     10   1
    11     10     11   2
    12     11     12   1
    13     12     13   2
    14     13      8   1
    15     14     15   2
    16     15     16   1
    17     16     17   2
    18     17     18   1
    19     18     19   2
    20     19     14   1
    21      7     14   1
    22      1     20   1
    23      2     21   1
    24      3     22   1
    25      5     23   1
    26      6     24   1
    27      9     25   1
    28     10     26   1
    29     11     27   1
    30     12     28   1
    31     13     29   1
    32     15     30   1
    33     16     31   1
    34     17     32   1
    35     18     33   1
    36     34     35   2
    37     35     36   1
    38     36     37   2
    39     37     38   1
    40     38     39   2
    41     39     34   1
    42     40     41   3
    43     37     40   1
    44     35     42   1
    45     36     43   1
    46     38     44   1
    47     39     45   1
    48     19     34   1
