# Produced with molli package
@<TRIPOS>MOLECULE
A_2_T
47 50 0 0 0
SMALL
USER_CHARGES

@<TRIPOS>ATOM
     1 C      -3.821728     4.142869     1.497968 C          1 UNL1 0.000
     2 C      -4.369937     2.998202     0.926196 C          1 UNL1 0.000
     3 C      -3.699814     1.774707     1.023580 C          1 UNL1 0.000
     4 C      -2.474235     1.668617     1.705203 C          1 UNL1 0.000
     5 C      -1.930890     2.843769     2.257082 C          1 UNL1 0.000
     6 C      -2.599327     4.067710     2.159580 C          1 UNL1 0.000
     7 N      -1.774735     0.408398     1.799751 N          1 UNL1 0.000
     8 C      -2.454441    -0.847776     2.022253 C          1 UNL1 0.000
     9 C      -3.699663    -0.909364     2.674964 C          1 UNL1 0.000
    10 C      -4.363141    -2.126505     2.865922 C          1 UNL1 0.000
    11 C      -3.788703    -3.313040     2.422645 C          1 UNL1 0.000
    12 C      -2.544627    -3.285259     1.800961 C          1 UNL1 0.000
    13 C      -1.884210    -2.067260     1.611389 C          1 UNL1 0.000
    14 C      -0.333890     0.422327     1.700521 C          1 UNL1 0.000
    15 C       0.420889     0.264818     2.880329 C          1 UNL1 0.000
    16 C       1.813517     0.307060     2.847147 C          1 UNL1 0.000
    17 C       2.471027     0.495424     1.635430 C          1 UNL1 0.000
    18 C       1.737699     0.628931     0.453940 C          1 UNL1 0.000
    19 C       0.330704     0.590416     0.459324 C          1 UNL1 0.000
    20 H      -4.341949     5.093919     1.422029 H          1 UNL1 0.000
    21 H      -5.316007     3.054523     0.394222 H          1 UNL1 0.000
    22 H      -4.127783     0.903187     0.534242 H          1 UNL1 0.000
    23 H      -0.981940     2.816187     2.786235 H          1 UNL1 0.000
    24 H      -2.162642     4.958975     2.601990 H          1 UNL1 0.000
    25 H      -4.165703    -0.006219     3.059660 H          1 UNL1 0.000
    26 H      -5.328803    -2.142353     3.364794 H          1 UNL1 0.000
    27 H      -4.305192    -4.258050     2.566373 H          1 UNL1 0.000
    28 H      -2.085160    -4.207896     1.457587 H          1 UNL1 0.000
    29 H      -0.917969    -2.085335     1.115300 H          1 UNL1 0.000
    30 H      -0.091370     0.125145     3.829506 H          1 UNL1 0.000
    31 H       2.382384     0.195498     3.766294 H          1 UNL1 0.000
    32 H       3.557201     0.528023     1.604851 H          1 UNL1 0.000
    33 H       2.270076     0.752731    -0.487662 H          1 UNL1 0.000
    34 C      -0.384674     0.641028    -0.825284 C          1 UNL1 0.000
    35 C      -0.899521     1.841160    -1.331240 C          1 UNL1 0.000
    36 C      -1.594059     1.867775    -2.545380 C          1 UNL1 0.000
    37 C      -1.781978     0.693711    -3.282272 C          1 UNL1 0.000
    38 C      -1.246226    -0.503184    -2.797803 C          1 UNL1 0.000
    39 C      -0.555145    -0.527160    -1.584205 C          1 UNL1 0.000
    40 C      -2.522574     0.707130    -4.585860 C          1 UNL1 0.000
    41 H      -0.779526     2.764369    -0.768546 H          1 UNL1 0.000
    42 H      -1.994778     2.813457    -2.902125 H          1 UNL1 0.000
    43 H      -1.369383    -1.427326    -3.357506 H          1 UNL1 0.000
    44 H      -0.154092    -1.471960    -1.224768 H          1 UNL1 0.000
    45 H      -3.291035    -0.073129    -4.593574 H          1 UNL1 0.000
    46 H      -1.828205     0.534945    -5.414195 H          1 UNL1 0.000
    47 H      -3.024642     1.665744    -4.751789 H          1 UNL1 0.000
@<TRIPOS>BOND
     1      1      2   2
     2      2      3   1
     3      3      4   2
     4      4      5   1
     5      5      6   2
     6      6      1   1
     7      4      7   1
     8      7      8   1
     9      8      9   2
    10      9     10   1
    11     10     11   2
    12     11     12   1
    13     12     13   2
    14     13      8   1
    15     14     15   2
    16     15     16   1
    17     16     17   2
    18     17     18   1
    19     18     19   2
    20     19     14   1
    21      7     14   1
    22      1     20   1
    23      2     21   1
    24      3     22   1
    25      5     23   1
    26      6     24   1
    27      9     25   1
    28     10     26   1
    29     11     27   1
    30     12     28   1
    31     13     29   1
    32     15     30   1
    33     16     31   1
    34     17     32   1
    35     18     33   1
    36     34     35   2
    37     35     36   1
    38     36     37   2
    39     37     38   1
    40     38     39   2
    41     39     34   1
    42     37     40   1
    43     35     41   1
    44     36     42   1
    45     38     43   1
    46     39     44   1
    47     40     45   1
    48     40     46   1
    49     40     47   1
    50     19     34   1
