# Produced with molli package
@<TRIPOS>MOLECULE
A_2_N
41 44 0 0 0
SMALL
USER_CHARGES

@<TRIPOS>ATOM
     1 C      -3.802755     4.296817     2.670310 C          1 UNL1 0.000
     2 C      -4.329399     3.073526     3.070606 C          1 UNL1 0.000
     3 C      -3.654363     1.885716     2.769137 C          1 UNL1 0.000
     4 C      -2.441776     1.898811     2.055823 C          1 UNL1 0.000
     5 C      -1.923600     3.149066     1.673838 C          1 UNL1 0.000
     6 C      -2.597881     4.337460     1.973338 C          1 UNL1 0.000
     7 N      -1.741136     0.675926     1.738653 N          1 UNL1 0.000
     8 C      -2.439659    -0.570131     1.537474 C          1 UNL1 0.000
     9 C      -3.629985    -0.624363     0.794294 C          1 UNL1 0.000
    10 C      -4.297742    -1.834268     0.588923 C          1 UNL1 0.000
    11 C      -3.782890    -3.014592     1.123552 C          1 UNL1 0.000
    12 C      -2.600370    -2.985096     1.855351 C          1 UNL1 0.000
    13 C      -1.930255    -1.775811     2.057734 C          1 UNL1 0.000
    14 C      -0.298114     0.677804     1.695758 C          1 UNL1 0.000
    15 C       0.417399     1.012174     2.858984 C          1 UNL1 0.000
    16 C       1.813283     0.983698     2.882011 C          1 UNL1 0.000
    17 C       2.517633     0.622556     1.731617 C          1 UNL1 0.000
    18 C       1.828769     0.303349     0.565769 C          1 UNL1 0.000
    19 C       0.422979     0.328442     0.525106 C          1 UNL1 0.000
    20 H      -4.328234     5.219747     2.903133 H          1 UNL1 0.000
    21 H      -5.265281     3.036922     3.623004 H          1 UNL1 0.000
    22 H      -4.078112     0.947462     3.116489 H          1 UNL1 0.000
    23 H      -0.990977     3.211529     1.117902 H          1 UNL1 0.000
    24 H      -2.181435     5.290195     1.659481 H          1 UNL1 0.000
    25 H      -4.031427     0.280503     0.342157 H          1 UNL1 0.000
    26 H      -5.212443    -1.855531     0.004447 H          1 UNL1 0.000
    27 H      -4.301785    -3.955695     0.962532 H          1 UNL1 0.000
    28 H      -2.194140    -3.903900     2.271969 H          1 UNL1 0.000
    29 H      -1.013512    -1.777421     2.639965 H          1 UNL1 0.000
    30 H      -0.123197     1.280596     3.767656 H          1 UNL1 0.000
    31 H       2.346636     1.234774     3.791943 H          1 UNL1 0.000
    32 H       3.605809     0.602248     1.747432 H          1 UNL1 0.000
    33 H       2.392862     0.050824    -0.332674 H          1 UNL1 0.000
    34 C      -0.233941     0.080410    -0.745605 C          1 UNL1 0.000
    35 C      -0.341416    -1.196463    -1.272485 C          1 UNL1 0.000
    36 S      -1.160926    -1.214414    -2.774628 S          1 UNL1 0.000
    37 C      -1.366117     0.482502    -2.739506 C          1 UNL1 0.000
    38 C      -0.832851     1.046960    -1.609731 C          1 UNL1 0.000
    39 H       0.003785    -2.119875    -0.837098 H          1 UNL1 0.000
    40 H      -1.873750     0.988396    -3.550298 H          1 UNL1 0.000
    41 H      -0.867523     2.112736    -1.402619 H          1 UNL1 0.000
@<TRIPOS>BOND
     1      1      2   2
     2      2      3   1
     3      3      4   2
     4      4      5   1
     5      5      6   2
     6      6      1   1
     7      4      7   1
     8      7      8   1
     9      8      9   2
    10      9     10   1
    11     10     11   2
    12     11     12   1
    13     12     13   2
    14     13      8   1
    15     14     15   2
    16     15     16   1
    17     16     17   2
    18     17     18   1
    19     18     19   2
    20     19     14   1
    21      7     14   1
    22      1     20   1
    23      2     21   1
    24      3     22   1
    25      5     23   1
    26      6     24   1
    27      9     25   1
    28     10     26   1
    29     11     27   1
    30     12     28   1
    31     13     29   1
    32     15     30   1
    33     16     31   1
    34     17     32   1
    35     18     33   1
    36     34     35   2
    37     35     36   1
    38     36     37   1
    39     37     38   2
    40     38     34   1
    41     35     39   1
    42     37     40   1
    43     38     41   1
    44     19     34   1
