# Produced with molli package
@<TRIPOS>MOLECULE
A_2_S
49 52 0 0 0
SMALL
USER_CHARGES

@<TRIPOS>ATOM
     1 C      -3.693567     4.302848     1.620905 C          1 UNL1 0.000
     2 C      -4.361189     3.175895     1.151659 C          1 UNL1 0.000
     3 C      -3.731979     1.924029     1.165990 C          1 UNL1 0.000
     4 C      -2.438114     1.758677     1.689075 C          1 UNL1 0.000
     5 C      -1.777878     2.925642     2.131563 C          1 UNL1 0.000
     6 C      -2.394467     4.180782     2.097362 C          1 UNL1 0.000
     7 N      -1.776477     0.468280     1.730307 N          1 UNL1 0.000
     8 C      -2.461406    -0.800452     1.891996 C          1 UNL1 0.000
     9 C      -3.747611    -0.903559     2.449078 C          1 UNL1 0.000
    10 C      -4.403910    -2.137198     2.558982 C          1 UNL1 0.000
    11 C      -3.772954    -3.307483     2.150679 C          1 UNL1 0.000
    12 C      -2.480693    -3.246920     1.646495 C          1 UNL1 0.000
    13 C      -1.836164    -2.011443     1.523964 C          1 UNL1 0.000
    14 C      -0.330762     0.456590     1.665821 C          1 UNL1 0.000
    15 C       0.389984     0.337243     2.871832 C          1 UNL1 0.000
    16 C       1.782551     0.353719     2.872306 C          1 UNL1 0.000
    17 C       2.472287     0.473924     1.669633 C          1 UNL1 0.000
    18 C       1.771562     0.570186     0.464051 C          1 UNL1 0.000
    19 C       0.364911     0.562232     0.434728 C          1 UNL1 0.000
    20 H      -4.179216     5.274890     1.603727 H          1 UNL1 0.000
    21 H      -5.371659     3.268806     0.761998 H          1 UNL1 0.000
    22 H      -4.266778     1.080986     0.737389 H          1 UNL1 0.000
    23 H      -0.764442     2.878198     2.520690 H          1 UNL1 0.000
    24 H      -1.855105     5.057620     2.446319 H          1 UNL1 0.000
    25 H      -4.262369    -0.025851     2.828864 H          1 UNL1 0.000
    26 H      -5.408097    -2.179482     2.972932 H          1 UNL1 0.000
    27 H      -4.280629    -4.264090     2.238533 H          1 UNL1 0.000
    28 H      -1.967241    -4.156260     1.345611 H          1 UNL1 0.000
    29 H      -0.826585    -2.015676     1.124043 H          1 UNL1 0.000
    30 H      -0.149907     0.250553     3.812180 H          1 UNL1 0.000
    31 H       2.326156     0.276581     3.810215 H          1 UNL1 0.000
    32 H       3.559413     0.486899     1.666431 H          1 UNL1 0.000
    33 H       2.331581     0.647797    -0.466304 H          1 UNL1 0.000
    34 C      -0.322532     0.600972    -0.865566 C          1 UNL1 0.000
    35 C      -0.815890     1.800485    -1.393052 C          1 UNL1 0.000
    36 C      -1.484566     1.819746    -2.621652 C          1 UNL1 0.000
    37 C      -1.669891     0.638125    -3.350469 C          1 UNL1 0.000
    38 C      -1.154101    -0.559813    -2.848608 C          1 UNL1 0.000
    39 C      -0.487133    -0.573530    -1.618034 C          1 UNL1 0.000
    40 C      -2.408957     0.710894    -4.645142 C          1 UNL1 0.000
    41 C      -2.868520    -0.559444    -5.313203 C          1 UNL1 0.000
    42 O      -2.622512     1.806226    -5.164879 O          1 UNL1 0.000
    43 H      -0.696347     2.730460    -0.840840 H          1 UNL1 0.000
    44 H      -1.869071     2.764915    -3.000768 H          1 UNL1 0.000
    45 H      -1.250095    -1.496032    -3.389515 H          1 UNL1 0.000
    46 H      -0.099737    -1.517519    -1.239360 H          1 UNL1 0.000
    47 H      -3.779547    -0.347982    -5.882255 H          1 UNL1 0.000
    48 H      -3.124803    -1.333478    -4.586528 H          1 UNL1 0.000
    49 H      -2.092349    -0.917559    -5.993933 H          1 UNL1 0.000
@<TRIPOS>BOND
     1      1      2   2
     2      2      3   1
     3      3      4   2
     4      4      5   1
     5      5      6   2
     6      6      1   1
     7      4      7   1
     8      7      8   1
     9      8      9   2
    10      9     10   1
    11     10     11   2
    12     11     12   1
    13     12     13   2
    14     13      8   1
    15     14     15   2
    16     15     16   1
    17     16     17   2
    18     17     18   1
    19     18     19   2
    20     19     14   1
    21      7     14   1
    22      1     20   1
    23      2     21   1
    24      3     22   1
    25      5     23   1
    26      6     24   1
    27      9     25   1
    28     10     26   1
    29     11     27   1
    30     12     28   1
    31     13     29   1
    32     15     30   1
    33     16     31   1
    34     17     32   1
    35     18     33   1
    36     34     35   2
    37     35     36   1
    38     36     37   2
    39     37     38   1
    40     38     39   2
    41     39     34   1
    42     37     40   1
    43     40     41   1
    44     40     42   2
    45     35     43   1
    46     36     44   1
    47     38     45   1
    48     39     46   1
    49     41     47   1
    50     41     48   1
    51     41     49   1
    52     19     34   1
