# Produced with molli package
@<TRIPOS>MOLECULE
A_2_Q
42 45 0 0 0
SMALL
USER_CHARGES

@<TRIPOS>ATOM
     1 C      -3.665043     4.170002     1.376034 C          1 UNL1 0.000
     2 C      -4.225127     3.033319     0.798961 C          1 UNL1 0.000
     3 C      -3.593343     1.793677     0.934830 C          1 UNL1 0.000
     4 C      -2.394693     1.665136     1.657332 C          1 UNL1 0.000
     5 C      -1.838027     2.830902     2.215933 C          1 UNL1 0.000
     6 C      -2.469649     4.070435     2.081712 C          1 UNL1 0.000
     7 N      -1.732093     0.390054     1.789548 N          1 UNL1 0.000
     8 C      -2.453778    -0.847743     1.971791 C          1 UNL1 0.000
     9 C      -3.696276    -0.884856     2.630142 C          1 UNL1 0.000
    10 C      -4.395592    -2.085272     2.795628 C          1 UNL1 0.000
    11 C      -3.860223    -3.277570     2.317224 C          1 UNL1 0.000
    12 C      -2.624060    -3.271256     1.679457 C          1 UNL1 0.000
    13 C      -1.927981    -2.070133     1.512909 C          1 UNL1 0.000
    14 C      -0.290362     0.359688     1.730737 C          1 UNL1 0.000
    15 C       0.428137     0.147989     2.923864 C          1 UNL1 0.000
    16 C       1.821798     0.161179     2.927351 C          1 UNL1 0.000
    17 C       2.515450     0.370723     1.739196 C          1 UNL1 0.000
    18 C       1.816597     0.556999     0.543956 C          1 UNL1 0.000
    19 C       0.409194     0.553551     0.515166 C          1 UNL1 0.000
    20 H      -4.156655     5.133480     1.270118 H          1 UNL1 0.000
    21 H      -5.150123     3.109480     0.233639 H          1 UNL1 0.000
    22 H      -4.031813     0.926952     0.445818 H          1 UNL1 0.000
    23 H      -0.912655     2.782236     2.783864 H          1 UNL1 0.000
    24 H      -2.027161     4.955324     2.531625 H          1 UNL1 0.000
    25 H      -4.129525     0.024554     3.038720 H          1 UNL1 0.000
    26 H      -5.357018    -2.085334     3.302136 H          1 UNL1 0.000
    27 H      -4.403353    -4.210166     2.443014 H          1 UNL1 0.000
    28 H      -2.197686    -4.196882     1.302137 H          1 UNL1 0.000
    29 H      -0.975660    -2.099011     0.988162 H          1 UNL1 0.000
    30 H      -0.111799    -0.010930     3.854559 H          1 UNL1 0.000
    31 H       2.363828     0.005798     3.856495 H          1 UNL1 0.000
    32 H       3.602720     0.372966     1.737437 H          1 UNL1 0.000
    33 H       2.377385     0.683337    -0.380773 H          1 UNL1 0.000
    34 C      -0.282637     0.679060    -0.768594 C          1 UNL1 0.000
    35 N      -0.659579    -0.485265    -1.361222 N          1 UNL1 0.000
    36 C      -1.305923    -0.363347    -2.542087 C          1 UNL1 0.000
    37 C      -1.542012     0.863447    -3.137914 C          1 UNL1 0.000
    38 N      -1.148216     2.028769    -2.578809 N          1 UNL1 0.000
    39 C      -0.523667     1.907214    -1.379269 C          1 UNL1 0.000
    40 H      -1.632508    -1.289300    -3.000754 H          1 UNL1 0.000
    41 H      -2.058070     0.940797    -4.087762 H          1 UNL1 0.000
    42 H      -0.220869     2.838897    -0.914019 H          1 UNL1 0.000
@<TRIPOS>BOND
     1      1      2   2
     2      2      3   1
     3      3      4   2
     4      4      5   1
     5      5      6   2
     6      6      1   1
     7      4      7   1
     8      7      8   1
     9      8      9   2
    10      9     10   1
    11     10     11   2
    12     11     12   1
    13     12     13   2
    14     13      8   1
    15     14     15   2
    16     15     16   1
    17     16     17   2
    18     17     18   1
    19     18     19   2
    20     19     14   1
    21      7     14   1
    22      1     20   1
    23      2     21   1
    24      3     22   1
    25      5     23   1
    26      6     24   1
    27      9     25   1
    28     10     26   1
    29     11     27   1
    30     12     28   1
    31     13     29   1
    32     15     30   1
    33     16     31   1
    34     17     32   1
    35     18     33   1
    36     34     35   2
    37     35     36   1
    38     36     37   2
    39     37     38   1
    40     38     39   2
    41     39     34   1
    42     36     40   1
    43     37     41   1
    44     39     42   1
    45     19     34   1
