# Produced with molli package
@<TRIPOS>MOLECULE
A_2_L
48 52 0 0 0
SMALL
USER_CHARGES

@<TRIPOS>ATOM
     1 C      -3.846677     4.287402     2.181942 C          1 UNL1 0.000
     2 C      -4.495530     3.106250     2.524704 C          1 UNL1 0.000
     3 C      -3.826652     1.876919     2.434368 C          1 UNL1 0.000
     4 C      -2.507214     1.787649     1.959882 C          1 UNL1 0.000
     5 C      -1.862445     3.012533     1.678208 C          1 UNL1 0.000
     6 C      -2.520888     4.242867     1.775200 C          1 UNL1 0.000
     7 N      -1.811374     0.524061     1.788108 N          1 UNL1 0.000
     8 C      -2.455872    -0.775283     1.767783 C          1 UNL1 0.000
     9 C      -3.733769    -0.974383     1.219749 C          1 UNL1 0.000
    10 C      -4.360507    -2.227292     1.260517 C          1 UNL1 0.000
    11 C      -3.702786    -3.324425     1.808313 C          1 UNL1 0.000
    12 C      -2.412932    -3.173168     2.301155 C          1 UNL1 0.000
    13 C      -1.799347    -1.916054     2.278403 C          1 UNL1 0.000
    14 C      -0.367667     0.546546     1.693075 C          1 UNL1 0.000
    15 C       0.376415     0.662716     2.886546 C          1 UNL1 0.000
    16 C       1.768611     0.652130     2.862258 C          1 UNL1 0.000
    17 C       2.435775     0.540379     1.646743 C          1 UNL1 0.000
    18 C       1.712090     0.444408     0.454641 C          1 UNL1 0.000
    19 C       0.303979     0.447607     0.448627 C          1 UNL1 0.000
    20 H      -4.366384     5.239120     2.246816 H          1 UNL1 0.000
    21 H      -5.526253     3.135208     2.868349 H          1 UNL1 0.000
    22 H      -4.365069     0.992531     2.760281 H          1 UNL1 0.000
    23 H      -0.823853     3.033676     1.360078 H          1 UNL1 0.000
    24 H      -1.991489     5.158994     1.527352 H          1 UNL1 0.000
    25 H      -4.257411    -0.156051     0.733200 H          1 UNL1 0.000
    26 H      -5.361652    -2.344152     0.854133 H          1 UNL1 0.000
    27 H      -4.187489    -4.296482     1.837889 H          1 UNL1 0.000
    28 H      -1.879414    -4.027369     2.709787 H          1 UNL1 0.000
    29 H      -0.795387    -1.843545     2.686841 H          1 UNL1 0.000
    30 H      -0.146812     0.741353     3.836975 H          1 UNL1 0.000
    31 H       2.328835     0.727640     3.790254 H          1 UNL1 0.000
    32 H       3.522530     0.534950     1.621733 H          1 UNL1 0.000
    33 H       2.254604     0.378162    -0.487155 H          1 UNL1 0.000
    34 C      -0.397534     0.402601    -0.846893 C          1 UNL1 0.000
    35 C      -0.893163     1.579286    -1.430346 C          1 UNL1 0.000
    36 C      -1.538935     1.585258    -2.671347 C          1 UNL1 0.000
    37 C      -1.651507     0.365883    -3.339667 C          1 UNL1 0.000
    38 C      -1.159612    -0.828469    -2.813168 C          1 UNL1 0.000
    39 C      -0.532466    -0.808594    -1.549586 C          1 UNL1 0.000
    40 N      -2.214080     0.071432    -4.559722 N          1 UNL1 0.000
    41 C      -2.078802    -1.262188    -4.835166 C          1 UNL1 0.000
    42 C      -1.432343    -1.846657    -3.768273 C          1 UNL1 0.000
    43 H      -0.773438     2.528859    -0.915615 H          1 UNL1 0.000
    44 H      -1.923428     2.508106    -3.092849 H          1 UNL1 0.000
    45 H      -0.150257    -1.732346    -1.124020 H          1 UNL1 0.000
    46 H      -2.655618     0.752150    -5.164755 H          1 UNL1 0.000
    47 H      -2.453127    -1.679059    -5.759525 H          1 UNL1 0.000
    48 H      -1.177535    -2.894074    -3.682304 H          1 UNL1 0.000
@<TRIPOS>BOND
     1      1      2   2
     2      2      3   1
     3      3      4   2
     4      4      5   1
     5      5      6   2
     6      6      1   1
     7      4      7   1
     8      7      8   1
     9      8      9   2
    10      9     10   1
    11     10     11   2
    12     11     12   1
    13     12     13   2
    14     13      8   1
    15     14     15   2
    16     15     16   1
    17     16     17   2
    18     17     18   1
    19     18     19   2
    20     19     14   1
    21      7     14   1
    22      1     20   1
    23      2     21   1
    24      3     22   1
    25      5     23   1
    26      6     24   1
    27      9     25   1
    28     10     26   1
    29     11     27   1
    30     12     28   1
    31     13     29   1
    32     15     30   1
    33     16     31   1
    34     17     32   1
    35     18     33   1
    36     34     35   2
    37     35     36   1
    38     36     37   2
    39     37     38   1
    40     38     39   2
    41     39     34   1
    42     37     40   1
    43     40     41   1
    44     41     42   2
    45     42     38   1
    46     35     43   1
    47     36     44   1
    48     39     45   1
    49     40     46   1
    50     41     47   1
    51     42     48   1
    52     19     34   1
