# Produced with molli package
@<TRIPOS>MOLECULE
A_2_O
43 46 0 0 0
SMALL
USER_CHARGES

@<TRIPOS>ATOM
     1 C      -3.850766     4.392497     2.360126 C          1 UNL1 0.000
     2 C      -4.398524     3.200194     2.823290 C          1 UNL1 0.000
     3 C      -3.725962     1.991435     2.615642 C          1 UNL1 0.000
     4 C      -2.498852     1.945251     1.929814 C          1 UNL1 0.000
     5 C      -1.953798     3.169024     1.498227 C          1 UNL1 0.000
     6 C      -2.624898     4.378526     1.702844 C          1 UNL1 0.000
     7 N      -1.808671     0.698854     1.690279 N          1 UNL1 0.000
     8 C      -2.504654    -0.563923     1.576911 C          1 UNL1 0.000
     9 C      -3.743810    -0.659264     0.918528 C          1 UNL1 0.000
    10 C      -4.424726    -1.877818     0.827346 C          1 UNL1 0.000
    11 C      -3.872594    -3.029766     1.380875 C          1 UNL1 0.000
    12 C      -2.635234    -2.966636     2.014194 C          1 UNL1 0.000
    13 C      -1.956203    -1.747658     2.105509 C          1 UNL1 0.000
    14 C      -0.364314     0.690131     1.665832 C          1 UNL1 0.000
    15 C       0.329403     0.898684     2.875565 C          1 UNL1 0.000
    16 C       1.721798     0.849068     2.918256 C          1 UNL1 0.000
    17 C       2.441226     0.598430     1.754053 C          1 UNL1 0.000
    18 C       1.769490     0.411964     0.543730 C          1 UNL1 0.000
    19 C       0.363959     0.462584     0.472566 C          1 UNL1 0.000
    20 H      -4.374670     5.331336     2.517591 H          1 UNL1 0.000
    21 H      -5.348715     3.205691     3.350734 H          1 UNL1 0.000
    22 H      -4.167975     1.081804     3.014807 H          1 UNL1 0.000
    23 H      -1.001536     3.194496     0.977369 H          1 UNL1 0.000
    24 H      -2.187515     5.306692     1.344962 H          1 UNL1 0.000
    25 H      -4.179535     0.218364     0.448260 H          1 UNL1 0.000
    26 H      -5.381710    -1.925425     0.315453 H          1 UNL1 0.000
    27 H      -4.398806    -3.977552     1.308770 H          1 UNL1 0.000
    28 H      -2.190876    -3.863991     2.436170 H          1 UNL1 0.000
    29 H      -0.993368    -1.733474     2.608589 H          1 UNL1 0.000
    30 H      -0.230519     1.075226     3.791183 H          1 UNL1 0.000
    31 H       2.241596     0.995176     3.861326 H          1 UNL1 0.000
    32 H       3.526830     0.551265     1.783919 H          1 UNL1 0.000
    33 H       2.346797     0.227962    -0.360850 H          1 UNL1 0.000
    34 C      -0.285270     0.362597    -0.838458 C          1 UNL1 0.000
    35 N      -0.643565    -0.878793    -1.243363 N          1 UNL1 0.000
    36 C      -1.266784    -0.982226    -2.437170 C          1 UNL1 0.000
    37 C      -1.515446     0.090903    -3.277527 C          1 UNL1 0.000
    38 C      -1.104034     1.352389    -2.868711 C          1 UNL1 0.000
    39 C      -0.481682     1.493018    -1.632474 C          1 UNL1 0.000
    40 H      -1.573706    -1.987809    -2.709224 H          1 UNL1 0.000
    41 H      -2.016553    -0.053722    -4.227515 H          1 UNL1 0.000
    42 H      -1.270659     2.219771    -3.500384 H          1 UNL1 0.000
    43 H      -0.156093     2.470344    -1.292381 H          1 UNL1 0.000
@<TRIPOS>BOND
     1      1      2   2
     2      2      3   1
     3      3      4   2
     4      4      5   1
     5      5      6   2
     6      6      1   1
     7      4      7   1
     8      7      8   1
     9      8      9   2
    10      9     10   1
    11     10     11   2
    12     11     12   1
    13     12     13   2
    14     13      8   1
    15     14     15   2
    16     15     16   1
    17     16     17   2
    18     17     18   1
    19     18     19   2
    20     19     14   1
    21      7     14   1
    22      1     20   1
    23      2     21   1
    24      3     22   1
    25      5     23   1
    26      6     24   1
    27      9     25   1
    28     10     26   1
    29     11     27   1
    30     12     28   1
    31     13     29   1
    32     15     30   1
    33     16     31   1
    34     17     32   1
    35     18     33   1
    36     34     35   2
    37     35     36   1
    38     36     37   2
    39     37     38   1
    40     38     39   2
    41     39     34   1
    42     36     40   1
    43     37     41   1
    44     38     42   1
    45     39     43   1
    46     19     34   1
