# Produced with molli package
@<TRIPOS>MOLECULE
A_3_P
60 65 0 0 0
SMALL
USER_CHARGES

@<TRIPOS>ATOM
     1 C      -5.800511     4.283864     0.761859 C          1 UNL1 0.000
     2 C      -6.439859     3.137376     1.222163 C          1 UNL1 0.000
     3 C      -5.798790     1.894489     1.148166 C          1 UNL1 0.000
     4 C      -4.517872     1.760864     0.583195 C          1 UNL1 0.000
     5 C      -3.884146     2.945208     0.154000 C          1 UNL1 0.000
     6 C      -4.516870     4.189928     0.238113 C          1 UNL1 0.000
     7 N      -3.848166     0.477092     0.487528 N          1 UNL1 0.000
     8 C      -4.537260    -0.795347     0.381361 C          1 UNL1 0.000
     9 C      -5.811774    -0.907612    -0.202270 C          1 UNL1 0.000
    10 C      -6.473106    -2.139324    -0.283896 C          1 UNL1 0.000
    11 C      -5.860357    -3.296039     0.186931 C          1 UNL1 0.000
    12 C      -4.582827    -3.223676     0.728574 C          1 UNL1 0.000
    13 C      -3.930099    -1.990009     0.820327 C          1 UNL1 0.000
    14 C      -2.398978     0.540843     3.003003 C          1 UNL1 0.000
    15 C      -1.736661     0.548434     4.228660 C          1 UNL1 0.000
    16 C      -0.355438     0.524745     4.251782 C          1 UNL1 0.000
    17 C       0.350664     0.496706     3.049107 C          1 UNL1 0.000
    18 C      -0.294241     0.486140     1.783174 C          1 UNL1 0.000
    19 C      -1.707073     0.505743     1.764636 C          1 UNL1 0.000
    20 C       0.427191     0.452317     0.546445 C          1 UNL1 0.000
    21 C      -0.259591     0.418274    -0.709432 C          1 UNL1 0.000
    22 C      -1.672851     0.413047    -0.729771 C          1 UNL1 0.000
    23 C      -2.385219     0.464917     0.507709 C          1 UNL1 0.000
    24 C       0.419970     0.398856    -1.956811 C          1 UNL1 0.000
    25 C      -0.253326     0.376455    -3.178465 C          1 UNL1 0.000
    26 C      -1.635022     0.368722    -3.193388 C          1 UNL1 0.000
    27 C      -2.330848     0.384871    -1.986516 C          1 UNL1 0.000
    28 H      -6.295399     5.249382     0.822004 H          1 UNL1 0.000
    29 H      -7.436798     3.207240     1.649397 H          1 UNL1 0.000
    30 H      -6.313810     1.032287     1.562963 H          1 UNL1 0.000
    31 H      -2.883347     2.921671    -0.268651 H          1 UNL1 0.000
    32 H      -4.000658     5.081643    -0.108170 H          1 UNL1 0.000
    33 H      -6.306100    -0.037031    -0.624694 H          1 UNL1 0.000
    34 H      -7.465173    -2.192437    -0.724632 H          1 UNL1 0.000
    35 H      -6.371193    -4.252843     0.121553 H          1 UNL1 0.000
    36 H      -4.087080    -4.123476     1.083702 H          1 UNL1 0.000
    37 H      -2.935340    -1.983437     1.257647 H          1 UNL1 0.000
    38 H      -3.487250     0.551958     3.022090 H          1 UNL1 0.000
    39 H      -2.304005     0.569308     5.154795 H          1 UNL1 0.000
    40 H       0.179197     0.526991     5.197592 H          1 UNL1 0.000
    41 H       1.437335     0.476929     3.116133 H          1 UNL1 0.000
    42 H       1.507991     0.406736    -1.992867 H          1 UNL1 0.000
    43 H       0.306272     0.367157    -4.109629 H          1 UNL1 0.000
    44 H      -2.177142     0.354215    -4.134696 H          1 UNL1 0.000
    45 H      -3.418331     0.387086    -2.035265 H          1 UNL1 0.000
    46 C       1.908847     0.469626     0.568688 C          1 UNL1 0.000
    47 C       2.643960    -0.728448     0.568244 C          1 UNL1 0.000
    48 C       4.040252    -0.705862     0.601265 C          1 UNL1 0.000
    49 C       4.707135     0.516752     0.623624 C          1 UNL1 0.000
    50 C       3.997982     1.713940     0.647856 C          1 UNL1 0.000
    51 C       2.603594     1.690668     0.609376 C          1 UNL1 0.000
    52 O       6.071913     0.569063     0.696211 O          1 UNL1 0.000
    53 C       6.645432     0.315254    -0.586081 C          1 UNL1 0.000
    54 H       2.124671    -1.684695     0.552435 H          1 UNL1 0.000
    55 H       4.598273    -1.637040     0.622794 H          1 UNL1 0.000
    56 H       4.527636     2.660701     0.695669 H          1 UNL1 0.000
    57 H       2.053534     2.629487     0.622188 H          1 UNL1 0.000
    58 H       7.708355     0.569280    -0.532671 H          1 UNL1 0.000
    59 H       6.188828     0.938499    -1.363852 H          1 UNL1 0.000
    60 H       6.561306    -0.744661    -0.847330 H          1 UNL1 0.000
@<TRIPOS>BOND
     1      1      2   2
     2      2      3   1
     3      3      4   2
     4      4      5   1
     5      5      6   2
     6      6      1   1
     7      4      7   1
     8      7      8   1
     9      8      9   2
    10      9     10   1
    11     10     11   2
    12     11     12   1
    13     12     13   2
    14     13      8   1
    15     14     15   2
    16     15     16   1
    17     16     17   2
    18     17     18   1
    19     18     19   2
    20     19     14   1
    21     18     20   1
    22     20     21   2
    23     21     22   1
    24     22     23   2
    25     23     19   1
    26     21     24   1
    27     24     25   2
    28     25     26   1
    29     26     27   2
    30     27     22   1
    31      7     23   1
    32      1     28   1
    33      2     29   1
    34      3     30   1
    35      5     31   1
    36      6     32   1
    37      9     33   1
    38     10     34   1
    39     11     35   1
    40     12     36   1
    41     13     37   1
    42     14     38   1
    43     15     39   1
    44     16     40   1
    45     17     41   1
    46     24     42   1
    47     25     43   1
    48     26     44   1
    49     27     45   1
    50     46     47   2
    51     47     48   1
    52     48     49   2
    53     49     50   1
    54     50     51   2
    55     51     46   1
    56     52     53   1
    57     49     52   1
    58     47     54   1
    59     48     55   1
    60     50     56   1
    61     51     57   1
    62     53     58   1
    63     53     59   1
    64     53     60   1
    65     20     46   1
