# Produced with molli package
@<TRIPOS>MOLECULE
A_3_T
59 64 0 0 0
SMALL
USER_CHARGES

@<TRIPOS>ATOM
     1 C      -5.896210     4.309276     0.789997 C          1 UNL1 0.000
     2 C      -6.524183     3.145885     1.222369 C          1 UNL1 0.000
     3 C      -5.866586     1.912774     1.129295 C          1 UNL1 0.000
     4 C      -4.580505     1.805549     0.570664 C          1 UNL1 0.000
     5 C      -3.960700     3.006164     0.165872 C          1 UNL1 0.000
     6 C      -4.608660     4.241427     0.272088 C          1 UNL1 0.000
     7 N      -3.887953     0.534737     0.462026 N          1 UNL1 0.000
     8 C      -4.549792    -0.753569     0.369613 C          1 UNL1 0.000
     9 C      -5.827236    -0.899565    -0.199119 C          1 UNL1 0.000
    10 C      -6.461502    -2.146831    -0.262381 C          1 UNL1 0.000
    11 C      -5.817265    -3.285927     0.209745 C          1 UNL1 0.000
    12 C      -4.534958    -3.180752     0.733763 C          1 UNL1 0.000
    13 C      -3.910210    -1.931723     0.808703 C          1 UNL1 0.000
    14 C      -2.428776     0.657368     2.970069 C          1 UNL1 0.000
    15 C      -1.761781     0.683720     4.192777 C          1 UNL1 0.000
    16 C      -0.380373     0.667067     4.210479 C          1 UNL1 0.000
    17 C       0.321220     0.626701     3.005339 C          1 UNL1 0.000
    18 C      -0.328747     0.597555     1.742421 C          1 UNL1 0.000
    19 C      -1.741584     0.611451     1.729367 C          1 UNL1 0.000
    20 C       0.387492     0.545510     0.503545 C          1 UNL1 0.000
    21 C      -0.304468     0.498236    -0.749409 C          1 UNL1 0.000
    22 C      -1.717481     0.490653    -0.764413 C          1 UNL1 0.000
    23 C      -2.424582     0.549753     0.475609 C          1 UNL1 0.000
    24 C       0.370528     0.462373    -1.999004 C          1 UNL1 0.000
    25 C      -0.306980     0.422389    -3.217733 C          1 UNL1 0.000
    26 C      -1.688703     0.414431    -3.227427 C          1 UNL1 0.000
    27 C      -2.380296     0.446974    -2.018239 C          1 UNL1 0.000
    28 H      -6.402906     5.267369     0.867763 H          1 UNL1 0.000
    29 H      -7.524612     3.194740     1.644375 H          1 UNL1 0.000
    30 H      -6.373433     1.038169     1.527374 H          1 UNL1 0.000
    31 H      -2.956957     3.003241    -0.250866 H          1 UNL1 0.000
    32 H      -4.100678     5.146326    -0.051393 H          1 UNL1 0.000
    33 H      -6.345660    -0.044154    -0.623467 H          1 UNL1 0.000
    34 H      -7.457568    -2.226115    -0.689954 H          1 UNL1 0.000
    35 H      -6.307083    -4.254495     0.158577 H          1 UNL1 0.000
    36 H      -4.013603    -4.066153     1.088385 H          1 UNL1 0.000
    37 H      -2.910301    -1.900160     1.233080 H          1 UNL1 0.000
    38 H      -3.516946     0.662023     2.993692 H          1 UNL1 0.000
    39 H      -2.325977     0.712864     5.120601 H          1 UNL1 0.000
    40 H       0.157666     0.683110     5.154129 H          1 UNL1 0.000
    41 H       1.408228     0.611581     3.066986 H          1 UNL1 0.000
    42 H       1.458656     0.469689    -2.038999 H          1 UNL1 0.000
    43 H       0.249991     0.399121    -4.150244 H          1 UNL1 0.000
    44 H      -2.233815     0.385844    -4.166636 H          1 UNL1 0.000
    45 H      -3.467902     0.447538    -2.062723 H          1 UNL1 0.000
    46 C       1.869009     0.537745     0.518033 C          1 UNL1 0.000
    47 C       2.591631     1.740255     0.525932 C          1 UNL1 0.000
    48 C       3.988778     1.732960     0.536035 C          1 UNL1 0.000
    49 C       4.690792     0.522864     0.545291 C          1 UNL1 0.000
    50 C       3.975259    -0.679833     0.528036 C          1 UNL1 0.000
    51 C       2.578419    -0.672612     0.518743 C          1 UNL1 0.000
    52 C       6.190487     0.504156     0.529342 C          1 UNL1 0.000
    53 H       2.062956     2.691442     0.522485 H          1 UNL1 0.000
    54 H       4.522629     2.680516     0.537131 H          1 UNL1 0.000
    55 H       4.501508    -1.631756     0.521130 H          1 UNL1 0.000
    56 H       2.039729    -1.618080     0.507680 H          1 UNL1 0.000
    57 H       6.550878     0.223460    -0.465225 H          1 UNL1 0.000
    58 H       6.571249    -0.211942     1.264984 H          1 UNL1 0.000
    59 H       6.604373     1.485809     0.782384 H          1 UNL1 0.000
@<TRIPOS>BOND
     1      1      2   2
     2      2      3   1
     3      3      4   2
     4      4      5   1
     5      5      6   2
     6      6      1   1
     7      4      7   1
     8      7      8   1
     9      8      9   2
    10      9     10   1
    11     10     11   2
    12     11     12   1
    13     12     13   2
    14     13      8   1
    15     14     15   2
    16     15     16   1
    17     16     17   2
    18     17     18   1
    19     18     19   2
    20     19     14   1
    21     18     20   1
    22     20     21   2
    23     21     22   1
    24     22     23   2
    25     23     19   1
    26     21     24   1
    27     24     25   2
    28     25     26   1
    29     26     27   2
    30     27     22   1
    31      7     23   1
    32      1     28   1
    33      2     29   1
    34      3     30   1
    35      5     31   1
    36      6     32   1
    37      9     33   1
    38     10     34   1
    39     11     35   1
    40     12     36   1
    41     13     37   1
    42     14     38   1
    43     15     39   1
    44     16     40   1
    45     17     41   1
    46     24     42   1
    47     25     43   1
    48     26     44   1
    49     27     45   1
    50     46     47   2
    51     47     48   1
    52     48     49   2
    53     49     50   1
    54     50     51   2
    55     51     46   1
    56     49     52   1
    57     47     53   1
    58     48     54   1
    59     50     55   1
    60     51     56   1
    61     52     57   1
    62     52     58   1
    63     52     59   1
    64     20     46   1
