# Produced with molli package
@<TRIPOS>MOLECULE
A_3_M
57 62 0 0 0
SMALL
USER_CHARGES

@<TRIPOS>ATOM
     1 C      -5.734991     4.405552     0.254611 C          1 UNL1 0.000
     2 C      -6.457038     3.275785    -0.113024 C          1 UNL1 0.000
     3 C      -5.856622     2.006685    -0.089946 C          1 UNL1 0.000
     4 C      -4.542879     1.819021     0.366898 C          1 UNL1 0.000
     5 C      -3.827624     2.997246     0.691078 C          1 UNL1 0.000
     6 C      -4.408381     4.268966     0.633091 C          1 UNL1 0.000
     7 N      -3.899619     0.514158     0.463940 N          1 UNL1 0.000
     8 C      -4.567082    -0.779701     0.536360 C          1 UNL1 0.000
     9 C      -5.916382    -0.940342     0.889121 C          1 UNL1 0.000
    10 C      -6.538727    -2.198974     0.881936 C          1 UNL1 0.000
    11 C      -5.808539    -3.345521     0.591705 C          1 UNL1 0.000
    12 C      -4.452965    -3.235621     0.322086 C          1 UNL1 0.000
    13 C      -3.847509    -1.974038     0.291336 C          1 UNL1 0.000
    14 C      -2.434910     0.492997     2.971017 C          1 UNL1 0.000
    15 C      -1.766511     0.515096     4.192804 C          1 UNL1 0.000
    16 C      -0.385079     0.546129     4.208063 C          1 UNL1 0.000
    17 C       0.315180     0.553327     3.001439 C          1 UNL1 0.000
    18 C      -0.335749     0.534143     1.738814 C          1 UNL1 0.000
    19 C      -1.748052     0.504032     1.729880 C          1 UNL1 0.000
    20 C       0.377011     0.549196     0.495700 C          1 UNL1 0.000
    21 C      -0.316881     0.543478    -0.757399 C          1 UNL1 0.000
    22 C      -1.729560     0.521740    -0.768535 C          1 UNL1 0.000
    23 C      -2.431854     0.507467     0.475616 C          1 UNL1 0.000
    24 C       0.352675     0.551947    -2.010202 C          1 UNL1 0.000
    25 C      -0.330122     0.522860    -3.226704 C          1 UNL1 0.000
    26 C      -1.711645     0.487857    -3.231236 C          1 UNL1 0.000
    27 C      -2.398014     0.492479    -2.019309 C          1 UNL1 0.000
    28 H      -6.196620     5.388696     0.227600 H          1 UNL1 0.000
    29 H      -7.490664     3.378799    -0.433704 H          1 UNL1 0.000
    30 H      -6.445309     1.179364    -0.470518 H          1 UNL1 0.000
    31 H      -2.787712     2.956171     1.003587 H          1 UNL1 0.000
    32 H      -3.816529     5.144083     0.888913 H          1 UNL1 0.000
    33 H      -6.521758    -0.098699     1.206404 H          1 UNL1 0.000
    34 H      -7.597074    -2.279776     1.117202 H          1 UNL1 0.000
    35 H      -6.287989    -4.320508     0.594834 H          1 UNL1 0.000
    36 H      -3.857522    -4.124481     0.129812 H          1 UNL1 0.000
    37 H      -2.784636    -1.953913     0.065436 H          1 UNL1 0.000
    38 H      -3.523480     0.474391     2.994223 H          1 UNL1 0.000
    39 H      -2.329223     0.510364     5.122099 H          1 UNL1 0.000
    40 H       0.153287     0.565859     5.151613 H          1 UNL1 0.000
    41 H       1.401548     0.579940     3.063533 H          1 UNL1 0.000
    42 H       1.439847     0.578043    -2.056073 H          1 UNL1 0.000
    43 H       0.221594     0.524633    -4.162720 H          1 UNL1 0.000
    44 H      -2.260645     0.456136    -4.168207 H          1 UNL1 0.000
    45 H      -3.485780     0.459909    -2.058351 H          1 UNL1 0.000
    46 C       1.858322     0.547409     0.509704 C          1 UNL1 0.000
    47 C       2.565741    -0.665815     0.514314 C          1 UNL1 0.000
    48 C       3.962453    -0.676990     0.545812 C          1 UNL1 0.000
    49 C       4.671701     0.527222     0.572942 C          1 UNL1 0.000
    50 C       3.978430     1.741655     0.563264 C          1 UNL1 0.000
    51 C       2.580727     1.751089     0.531092 C          1 UNL1 0.000
    52 C       6.105590     0.515402     0.615029 C          1 UNL1 0.000
    53 N       7.264019     0.503682     0.651361 N          1 UNL1 0.000
    54 H       2.023167    -1.609964     0.497860 H          1 UNL1 0.000
    55 H       4.487583    -1.630342     0.552506 H          1 UNL1 0.000
    56 H       4.517772     2.686950     0.584008 H          1 UNL1 0.000
    57 H       2.051599     2.702864     0.527866 H          1 UNL1 0.000
@<TRIPOS>BOND
     1      1      2   2
     2      2      3   1
     3      3      4   2
     4      4      5   1
     5      5      6   2
     6      6      1   1
     7      4      7   1
     8      7      8   1
     9      8      9   2
    10      9     10   1
    11     10     11   2
    12     11     12   1
    13     12     13   2
    14     13      8   1
    15     14     15   2
    16     15     16   1
    17     16     17   2
    18     17     18   1
    19     18     19   2
    20     19     14   1
    21     18     20   1
    22     20     21   2
    23     21     22   1
    24     22     23   2
    25     23     19   1
    26     21     24   1
    27     24     25   2
    28     25     26   1
    29     26     27   2
    30     27     22   1
    31      7     23   1
    32      1     28   1
    33      2     29   1
    34      3     30   1
    35      5     31   1
    36      6     32   1
    37      9     33   1
    38     10     34   1
    39     11     35   1
    40     12     36   1
    41     13     37   1
    42     14     38   1
    43     15     39   1
    44     16     40   1
    45     17     41   1
    46     24     42   1
    47     25     43   1
    48     26     44   1
    49     27     45   1
    50     46     47   2
    51     47     48   1
    52     48     49   2
    53     49     50   1
    54     50     51   2
    55     51     46   1
    56     52     53   3
    57     49     52   1
    58     47     54   1
    59     48     55   1
    60     50     56   1
    61     51     57   1
    62     20     46   1
