# Produced with molli package
@<TRIPOS>MOLECULE
A_3_Q
54 59 0 0 0
SMALL
USER_CHARGES

@<TRIPOS>ATOM
     1 C      -5.922104     4.264946     0.826539 C          1 UNL1 0.000
     2 C      -6.543770     3.106601     1.281673 C          1 UNL1 0.000
     3 C      -5.883158     1.874783     1.202388 C          1 UNL1 0.000
     4 C      -4.597364     1.766094     0.642320 C          1 UNL1 0.000
     5 C      -3.982590     2.960857     0.216147 C          1 UNL1 0.000
     6 C      -4.636918     4.193955     0.302348 C          1 UNL1 0.000
     7 N      -3.909191     0.492634     0.548272 N          1 UNL1 0.000
     8 C      -4.589750    -0.781807     0.441882 C          1 UNL1 0.000
     9 C      -5.827851    -0.906095    -0.214421 C          1 UNL1 0.000
    10 C      -6.482518    -2.139276    -0.309379 C          1 UNL1 0.000
    11 C      -5.902131    -3.282123     0.231631 C          1 UNL1 0.000
    12 C      -4.663059    -3.194568     0.856518 C          1 UNL1 0.000
    13 C      -4.012735    -1.960101     0.954137 C          1 UNL1 0.000
    14 C      -2.398443     0.607354     3.026100 C          1 UNL1 0.000
    15 C      -1.705570     0.660094     4.233485 C          1 UNL1 0.000
    16 C      -0.324032     0.695589     4.220520 C          1 UNL1 0.000
    17 C       0.351812     0.675516     3.000496 C          1 UNL1 0.000
    18 C      -0.324572     0.609464     1.753001 C          1 UNL1 0.000
    19 C      -1.738449     0.577933     1.770884 C          1 UNL1 0.000
    20 C       0.363974     0.573073     0.499382 C          1 UNL1 0.000
    21 C      -0.351833     0.509844    -0.737775 C          1 UNL1 0.000
    22 C      -1.764769     0.454264    -0.721660 C          1 UNL1 0.000
    23 C      -2.446960     0.497702     0.533230 C          1 UNL1 0.000
    24 C       0.296582     0.512115    -2.001992 C          1 UNL1 0.000
    25 C      -0.405012     0.452125    -3.205849 C          1 UNL1 0.000
    26 C      -1.785081     0.386755    -3.185560 C          1 UNL1 0.000
    27 C      -2.450602     0.389417    -1.961723 C          1 UNL1 0.000
    28 H      -6.432281     5.222209     0.890157 H          1 UNL1 0.000
    29 H      -7.541972     3.158645     1.708341 H          1 UNL1 0.000
    30 H      -6.385678     1.000622     1.607758 H          1 UNL1 0.000
    31 H      -2.980848     2.955379    -0.205366 H          1 UNL1 0.000
    32 H      -4.135545     5.094895    -0.041994 H          1 UNL1 0.000
    33 H      -6.291941    -0.042394    -0.683774 H          1 UNL1 0.000
    34 H      -7.442866    -2.204710    -0.814062 H          1 UNL1 0.000
    35 H      -6.408964    -4.240583     0.158046 H          1 UNL1 0.000
    36 H      -4.196949    -4.084464     1.271684 H          1 UNL1 0.000
    37 H      -3.049927    -1.935646     1.456848 H          1 UNL1 0.000
    38 H      -3.485996     0.580393     3.073455 H          1 UNL1 0.000
    39 H      -2.249215     0.676979     5.173853 H          1 UNL1 0.000
    40 H       0.232905     0.744623     5.152123 H          1 UNL1 0.000
    41 H       1.439313     0.722902     3.040086 H          1 UNL1 0.000
    42 H       1.381513     0.582597    -2.069095 H          1 UNL1 0.000
    43 H       0.130586     0.464895    -4.151024 H          1 UNL1 0.000
    44 H      -2.349363     0.344204    -4.112840 H          1 UNL1 0.000
    45 H      -3.538268     0.353177    -1.985025 H          1 UNL1 0.000
    46 C       1.837293     0.582992     0.481329 C          1 UNL1 0.000
    47 N       2.436367     1.801662     0.449052 N          1 UNL1 0.000
    48 C       3.788668     1.793154     0.425947 C          1 UNL1 0.000
    49 C       4.525549     0.621234     0.434435 C          1 UNL1 0.000
    50 N       3.945372    -0.599040     0.467124 N          1 UNL1 0.000
    51 C       2.589276    -0.590854     0.490067 C          1 UNL1 0.000
    52 H       4.268347     2.764921     0.399535 H          1 UNL1 0.000
    53 H       5.609344     0.633351     0.414630 H          1 UNL1 0.000
    54 H       2.114856    -1.566425     0.514129 H          1 UNL1 0.000
@<TRIPOS>BOND
     1      1      2   2
     2      2      3   1
     3      3      4   2
     4      4      5   1
     5      5      6   2
     6      6      1   1
     7      4      7   1
     8      7      8   1
     9      8      9   2
    10      9     10   1
    11     10     11   2
    12     11     12   1
    13     12     13   2
    14     13      8   1
    15     14     15   2
    16     15     16   1
    17     16     17   2
    18     17     18   1
    19     18     19   2
    20     19     14   1
    21     18     20   1
    22     20     21   2
    23     21     22   1
    24     22     23   2
    25     23     19   1
    26     21     24   1
    27     24     25   2
    28     25     26   1
    29     26     27   2
    30     27     22   1
    31      7     23   1
    32      1     28   1
    33      2     29   1
    34      3     30   1
    35      5     31   1
    36      6     32   1
    37      9     33   1
    38     10     34   1
    39     11     35   1
    40     12     36   1
    41     13     37   1
    42     14     38   1
    43     15     39   1
    44     16     40   1
    45     17     41   1
    46     24     42   1
    47     25     43   1
    48     26     44   1
    49     27     45   1
    50     46     47   2
    51     47     48   1
    52     48     49   2
    53     49     50   1
    54     50     51   2
    55     51     46   1
    56     48     52   1
    57     49     53   1
    58     51     54   1
    59     20     46   1
