# Produced with molli package
@<TRIPOS>MOLECULE
A_3_S
61 66 0 0 0
SMALL
USER_CHARGES

@<TRIPOS>ATOM
     1 C      -5.732060     4.368716     0.726261 C          1 UNL1 0.000
     2 C      -6.420856     3.237779     1.151590 C          1 UNL1 0.000
     3 C      -5.810212     1.978229     1.099076 C          1 UNL1 0.000
     4 C      -4.511696     1.810454     0.585417 C          1 UNL1 0.000
     5 C      -3.827739     2.980947     0.195683 C          1 UNL1 0.000
     6 C      -4.429131     4.242464     0.261088 C          1 UNL1 0.000
     7 N      -3.877916     0.506492     0.497804 N          1 UNL1 0.000
     8 C      -4.603074    -0.744924     0.380421 C          1 UNL1 0.000
     9 C      -5.865661    -0.821233    -0.234530 C          1 UNL1 0.000
    10 C      -6.567585    -2.030022    -0.317973 C          1 UNL1 0.000
    11 C      -6.006913    -3.200958     0.181215 C          1 UNL1 0.000
    12 C      -4.739653    -3.166150     0.750248 C          1 UNL1 0.000
    13 C      -4.046331    -1.954700     0.843138 C          1 UNL1 0.000
    14 C      -2.422476     0.465690     3.009771 C          1 UNL1 0.000
    15 C      -1.757942     0.426810     4.233470 C          1 UNL1 0.000
    16 C      -0.376970     0.381699     4.252713 C          1 UNL1 0.000
    17 C       0.326995     0.381626     3.048218 C          1 UNL1 0.000
    18 C      -0.320024     0.417697     1.784005 C          1 UNL1 0.000
    19 C      -1.733340     0.452847     1.769692 C          1 UNL1 0.000
    20 C       0.398087     0.418176     0.544849 C          1 UNL1 0.000
    21 C      -0.293144     0.417737    -0.709471 C          1 UNL1 0.000
    22 C      -1.706814     0.419551    -0.725586 C          1 UNL1 0.000
    23 C      -2.415467     0.452604     0.514655 C          1 UNL1 0.000
    24 C       0.381824     0.429788    -1.959580 C          1 UNL1 0.000
    25 C      -0.295113     0.438050    -3.179198 C          1 UNL1 0.000
    26 C      -1.676692     0.432697    -3.189790 C          1 UNL1 0.000
    27 C      -2.368438     0.422821    -1.980629 C          1 UNL1 0.000
    28 H      -6.203632     5.346760     0.768555 H          1 UNL1 0.000
    29 H      -7.434022     3.332238     1.533602 H          1 UNL1 0.000
    30 H      -6.367412     1.130031     1.487048 H          1 UNL1 0.000
    31 H      -2.810161     2.935580    -0.182491 H          1 UNL1 0.000
    32 H      -3.873659     5.121558    -0.055606 H          1 UNL1 0.000
    33 H      -6.319176     0.060563    -0.679101 H          1 UNL1 0.000
    34 H      -7.550570    -2.053927    -0.781123 H          1 UNL1 0.000
    35 H      -6.550019    -4.139888     0.116420 H          1 UNL1 0.000
    36 H      -4.284274    -4.078321     1.127168 H          1 UNL1 0.000
    37 H      -3.062222    -1.977248     1.302881 H          1 UNL1 0.000
    38 H      -3.510727     0.494126     3.030962 H          1 UNL1 0.000
    39 H      -2.323412     0.428736     5.161097 H          1 UNL1 0.000
    40 H       0.158267     0.347890     5.197640 H          1 UNL1 0.000
    41 H       1.413108     0.346339     3.112689 H          1 UNL1 0.000
    42 H       1.469530     0.440536    -2.001038 H          1 UNL1 0.000
    43 H       0.261501     0.452097    -4.112155 H          1 UNL1 0.000
    44 H      -2.221743     0.442745    -4.129460 H          1 UNL1 0.000
    45 H      -3.456043     0.430767    -2.026350 H          1 UNL1 0.000
    46 C       1.880215     0.446135     0.560043 C          1 UNL1 0.000
    47 C       2.564972     1.665861     0.662312 C          1 UNL1 0.000
    48 C       3.961764     1.700024     0.676127 C          1 UNL1 0.000
    49 C       4.704293     0.515392     0.583344 C          1 UNL1 0.000
    50 C       4.029027    -0.704957     0.469170 C          1 UNL1 0.000
    51 C       2.628504    -0.737441     0.464581 C          1 UNL1 0.000
    52 C       6.195607     0.617850     0.604913 C          1 UNL1 0.000
    53 C       7.029981    -0.636718     0.579303 C          1 UNL1 0.000
    54 O       6.729293     1.724596     0.616993 O          1 UNL1 0.000
    55 H       2.009047     2.599416     0.732926 H          1 UNL1 0.000
    56 H       4.466913     2.661180     0.758474 H          1 UNL1 0.000
    57 H       4.560250    -1.647255     0.377437 H          1 UNL1 0.000
    58 H       2.116430    -1.694880     0.379481 H          1 UNL1 0.000
    59 H       7.152519    -0.974821    -0.452517 H          1 UNL1 0.000
    60 H       6.595395    -1.426101     1.195665 H          1 UNL1 0.000
    61 H       8.014924    -0.412539     1.001661 H          1 UNL1 0.000
@<TRIPOS>BOND
     1      1      2   2
     2      2      3   1
     3      3      4   2
     4      4      5   1
     5      5      6   2
     6      6      1   1
     7      4      7   1
     8      7      8   1
     9      8      9   2
    10      9     10   1
    11     10     11   2
    12     11     12   1
    13     12     13   2
    14     13      8   1
    15     14     15   2
    16     15     16   1
    17     16     17   2
    18     17     18   1
    19     18     19   2
    20     19     14   1
    21     18     20   1
    22     20     21   2
    23     21     22   1
    24     22     23   2
    25     23     19   1
    26     21     24   1
    27     24     25   2
    28     25     26   1
    29     26     27   2
    30     27     22   1
    31      7     23   1
    32      1     28   1
    33      2     29   1
    34      3     30   1
    35      5     31   1
    36      6     32   1
    37      9     33   1
    38     10     34   1
    39     11     35   1
    40     12     36   1
    41     13     37   1
    42     14     38   1
    43     15     39   1
    44     16     40   1
    45     17     41   1
    46     24     42   1
    47     25     43   1
    48     26     44   1
    49     27     45   1
    50     46     47   2
    51     47     48   1
    52     48     49   2
    53     49     50   1
    54     50     51   2
    55     51     46   1
    56     49     52   1
    57     52     53   1
    58     52     54   2
    59     47     55   1
    60     48     56   1
    61     50     57   1
    62     51     58   1
    63     53     59   1
    64     53     60   1
    65     53     61   1
    66     20     46   1
