# Produced with molli package
@<TRIPOS>MOLECULE
A_3_L
60 66 0 0 0
SMALL
USER_CHARGES

@<TRIPOS>ATOM
     1 C      -5.923790     4.297347     0.385516 C          1 UNL1 0.000
     2 C      -6.556157     3.149786    -0.081022 C          1 UNL1 0.000
     3 C      -5.895745     1.914868    -0.043630 C          1 UNL1 0.000
     4 C      -4.603590     1.787140     0.496094 C          1 UNL1 0.000
     5 C      -3.976533     2.975375     0.926479 C          1 UNL1 0.000
     6 C      -4.627066     4.212914     0.876341 C          1 UNL1 0.000
     7 N      -3.917630     0.509403     0.569423 N          1 UNL1 0.000
     8 C      -4.585404    -0.778191     0.644004 C          1 UNL1 0.000
     9 C      -5.868138    -0.927182     1.200062 C          1 UNL1 0.000
    10 C      -6.509061    -2.172276     1.241074 C          1 UNL1 0.000
    11 C      -5.865884    -3.308383     0.761079 C          1 UNL1 0.000
    12 C      -4.577663    -3.202463     0.252594 C          1 UNL1 0.000
    13 C      -3.946810    -1.955081     0.199171 C          1 UNL1 0.000
    14 C      -2.444243     0.469848     3.071423 C          1 UNL1 0.000
    15 C      -1.769629     0.476484     4.290469 C          1 UNL1 0.000
    16 C      -0.388041     0.488612     4.299611 C          1 UNL1 0.000
    17 C       0.306501     0.489621     3.089781 C          1 UNL1 0.000
    18 C      -0.351272     0.487241     1.830455 C          1 UNL1 0.000
    19 C      -1.763900     0.482798     1.826096 C          1 UNL1 0.000
    20 C       0.358023     0.494091     0.586321 C          1 UNL1 0.000
    21 C      -0.340899     0.523237    -0.663126 C          1 UNL1 0.000
    22 C      -1.753528     0.550318    -0.669712 C          1 UNL1 0.000
    23 C      -2.454049     0.517126     0.575320 C          1 UNL1 0.000
    24 C       0.326641     0.517696    -1.917130 C          1 UNL1 0.000
    25 C      -0.358604     0.537385    -3.132220 C          1 UNL1 0.000
    26 C      -1.739988     0.570431    -3.133735 C          1 UNL1 0.000
    27 C      -2.424011     0.579781    -1.920003 C          1 UNL1 0.000
    28 H      -6.433763     5.256311     0.354695 H          1 UNL1 0.000
    29 H      -7.563573     3.212353    -0.484130 H          1 UNL1 0.000
    30 H      -6.408379     1.055026    -0.465654 H          1 UNL1 0.000
    31 H      -2.965660     2.962423     1.324905 H          1 UNL1 0.000
    32 H      -4.114129     5.105774     1.224610 H          1 UNL1 0.000
    33 H      -6.387382    -0.076661     1.632791 H          1 UNL1 0.000
    34 H      -7.509696    -2.251956     1.657794 H          1 UNL1 0.000
    35 H      -6.360762    -4.275110     0.794924 H          1 UNL1 0.000
    36 H      -4.056153    -4.085850    -0.106824 H          1 UNL1 0.000
    37 H      -2.942096    -1.925166    -0.213423 H          1 UNL1 0.000
    38 H      -3.532338     0.468564     3.100558 H          1 UNL1 0.000
    39 H      -2.327911     0.476932     5.222331 H          1 UNL1 0.000
    40 H       0.156057     0.498588     5.239925 H          1 UNL1 0.000
    41 H       1.393955     0.500671     3.144647 H          1 UNL1 0.000
    42 H       1.414253     0.492796    -1.963446 H          1 UNL1 0.000
    43 H       0.192437     0.526699    -4.068494 H          1 UNL1 0.000
    44 H      -2.290929     0.585311    -4.069867 H          1 UNL1 0.000
    45 H      -3.511721     0.598545    -1.957390 H          1 UNL1 0.000
    46 C       1.840003     0.461833     0.593662 C          1 UNL1 0.000
    47 C       2.521738    -0.764584     0.618661 C          1 UNL1 0.000
    48 C       3.919269    -0.829640     0.634692 C          1 UNL1 0.000
    49 C       4.621050     0.379751     0.624745 C          1 UNL1 0.000
    50 C       3.985139     1.620386     0.598013 C          1 UNL1 0.000
    51 C       2.577499     1.661548     0.581719 C          1 UNL1 0.000
    52 N       5.976686     0.620490     0.638483 N          1 UNL1 0.000
    53 C       6.218357     1.968610     0.620941 C          1 UNL1 0.000
    54 C       5.002976     2.613513     0.595014 C          1 UNL1 0.000
    55 H       1.953331    -1.693716     0.628639 H          1 UNL1 0.000
    56 H       4.430550    -1.786306     0.655951 H          1 UNL1 0.000
    57 H       2.063848     2.619299     0.562280 H          1 UNL1 0.000
    58 H       6.685776    -0.099185     0.659475 H          1 UNL1 0.000
    59 H       7.229991     2.351182     0.628632 H          1 UNL1 0.000
    60 H       4.857307     3.685588     0.576845 H          1 UNL1 0.000
@<TRIPOS>BOND
     1      1      2   2
     2      2      3   1
     3      3      4   2
     4      4      5   1
     5      5      6   2
     6      6      1   1
     7      4      7   1
     8      7      8   1
     9      8      9   2
    10      9     10   1
    11     10     11   2
    12     11     12   1
    13     12     13   2
    14     13      8   1
    15     14     15   2
    16     15     16   1
    17     16     17   2
    18     17     18   1
    19     18     19   2
    20     19     14   1
    21     18     20   1
    22     20     21   2
    23     21     22   1
    24     22     23   2
    25     23     19   1
    26     21     24   1
    27     24     25   2
    28     25     26   1
    29     26     27   2
    30     27     22   1
    31      7     23   1
    32      1     28   1
    33      2     29   1
    34      3     30   1
    35      5     31   1
    36      6     32   1
    37      9     33   1
    38     10     34   1
    39     11     35   1
    40     12     36   1
    41     13     37   1
    42     14     38   1
    43     15     39   1
    44     16     40   1
    45     17     41   1
    46     24     42   1
    47     25     43   1
    48     26     44   1
    49     27     45   1
    50     46     47   2
    51     47     48   1
    52     48     49   2
    53     49     50   1
    54     50     51   2
    55     51     46   1
    56     49     52   1
    57     52     53   1
    58     53     54   2
    59     54     50   1
    60     47     55   1
    61     48     56   1
    62     51     57   1
    63     52     58   1
    64     53     59   1
    65     54     60   1
    66     20     46   1
