# Produced with molli package
@<TRIPOS>MOLECULE
A_3_N
53 58 0 0 0
SMALL
USER_CHARGES

@<TRIPOS>ATOM
     1 C      -5.879952     4.331397     0.607465 C          1 UNL1 0.000
     2 C      -6.541949     3.187860     1.041804 C          1 UNL1 0.000
     3 C      -5.896826     1.943508     1.017712 C          1 UNL1 0.000
     4 C      -4.591258     1.800815     0.517648 C          1 UNL1 0.000
     5 C      -3.936433     2.986760     0.118362 C          1 UNL1 0.000
     6 C      -4.569360     4.233594     0.160217 C          1 UNL1 0.000
     7 N      -3.912127     0.517287     0.455900 N          1 UNL1 0.000
     8 C      -4.573466    -0.774921     0.381214 C          1 UNL1 0.000
     9 C      -5.866230    -0.934772    -0.146107 C          1 UNL1 0.000
    10 C      -6.494477    -2.187458    -0.182770 C          1 UNL1 0.000
    11 C      -5.827014    -3.322116     0.266314 C          1 UNL1 0.000
    12 C      -4.527591    -3.207085     0.741122 C          1 UNL1 0.000
    13 C      -3.911993    -1.952102     0.795387 C          1 UNL1 0.000
    14 C      -2.454968     0.587670     2.966848 C          1 UNL1 0.000
    15 C      -1.788636     0.591732     4.190508 C          1 UNL1 0.000
    16 C      -0.406957     0.582078     4.209798 C          1 UNL1 0.000
    17 C       0.296588     0.568755     3.005210 C          1 UNL1 0.000
    18 C      -0.354400     0.556394     1.741049 C          1 UNL1 0.000
    19 C      -1.765793     0.565800     1.726602 C          1 UNL1 0.000
    20 C       0.347717     0.527964     0.496081 C          1 UNL1 0.000
    21 C      -0.330645     0.508622    -0.762105 C          1 UNL1 0.000
    22 C      -1.741991     0.493638    -0.774369 C          1 UNL1 0.000
    23 C      -2.447742     0.525968     0.469617 C          1 UNL1 0.000
    24 C       0.344124     0.508840    -2.013780 C          1 UNL1 0.000
    25 C      -0.336533     0.498802    -3.231501 C          1 UNL1 0.000
    26 C      -1.718244     0.479554    -3.238353 C          1 UNL1 0.000
    27 C      -2.407532     0.473068    -2.027483 C          1 UNL1 0.000
    28 H      -6.377454     5.297109     0.630760 H          1 UNL1 0.000
    29 H      -7.561479     3.261353     1.411447 H          1 UNL1 0.000
    30 H      -6.434888     1.091274     1.422131 H          1 UNL1 0.000
    31 H      -2.913046     2.966764    -0.246259 H          1 UNL1 0.000
    32 H      -4.031381     5.122250    -0.159934 H          1 UNL1 0.000
    33 H      -6.406599    -0.089808    -0.562502 H          1 UNL1 0.000
    34 H      -7.504918    -2.274466    -0.573805 H          1 UNL1 0.000
    35 H      -6.311259    -4.294262     0.233211 H          1 UNL1 0.000
    36 H      -3.984956    -4.088508     1.073238 H          1 UNL1 0.000
    37 H      -2.896967    -1.918774     1.181723 H          1 UNL1 0.000
    38 H      -3.543387     0.589558     2.988459 H          1 UNL1 0.000
    39 H      -2.353851     0.599449     5.118360 H          1 UNL1 0.000
    40 H       0.129469     0.583444     5.154693 H          1 UNL1 0.000
    41 H       1.383297     0.562197     3.067376 H          1 UNL1 0.000
    42 H       1.431735     0.523178    -2.055300 H          1 UNL1 0.000
    43 H       0.217557     0.506533    -4.166116 H          1 UNL1 0.000
    44 H      -2.265817     0.472942    -4.176736 H          1 UNL1 0.000
    45 H      -3.495327     0.464628    -2.069611 H          1 UNL1 0.000
    46 C       1.814030     0.523953     0.509928 C          1 UNL1 0.000
    47 C       2.526608    -0.658802     0.553755 C          1 UNL1 0.000
    48 S       4.217411    -0.392011     0.562184 S          1 UNL1 0.000
    49 C       4.007722     1.305275     0.504661 C          1 UNL1 0.000
    50 C       2.677694     1.663014     0.481287 C          1 UNL1 0.000
    51 H       2.138733    -1.668567     0.582679 H          1 UNL1 0.000
    52 H       4.869391     1.958375     0.490999 H          1 UNL1 0.000
    53 H       2.336948     2.690892     0.444558 H          1 UNL1 0.000
@<TRIPOS>BOND
     1      1      2   2
     2      2      3   1
     3      3      4   2
     4      4      5   1
     5      5      6   2
     6      6      1   1
     7      4      7   1
     8      7      8   1
     9      8      9   2
    10      9     10   1
    11     10     11   2
    12     11     12   1
    13     12     13   2
    14     13      8   1
    15     14     15   2
    16     15     16   1
    17     16     17   2
    18     17     18   1
    19     18     19   2
    20     19     14   1
    21     18     20   1
    22     20     21   2
    23     21     22   1
    24     22     23   2
    25     23     19   1
    26     21     24   1
    27     24     25   2
    28     25     26   1
    29     26     27   2
    30     27     22   1
    31      7     23   1
    32      1     28   1
    33      2     29   1
    34      3     30   1
    35      5     31   1
    36      6     32   1
    37      9     33   1
    38     10     34   1
    39     11     35   1
    40     12     36   1
    41     13     37   1
    42     14     38   1
    43     15     39   1
    44     16     40   1
    45     17     41   1
    46     24     42   1
    47     25     43   1
    48     26     44   1
    49     27     45   1
    50     46     47   2
    51     47     48   1
    52     48     49   1
    53     49     50   2
    54     50     46   1
    55     47     51   1
    56     49     52   1
    57     50     53   1
    58     20     46   1
