# Produced with molli package
@<TRIPOS>MOLECULE
A_3_R
57 62 0 0 0
SMALL
USER_CHARGES

@<TRIPOS>ATOM
     1 C      -5.925587     4.231173     0.375989 C          1 UNL1 0.000
     2 C      -6.515506     3.087752    -0.153469 C          1 UNL1 0.000
     3 C      -5.855350     1.856117    -0.077572 C          1 UNL1 0.000
     4 C      -4.601259     1.733985     0.547790 C          1 UNL1 0.000
     5 C      -4.017354     2.912637     1.052327 C          1 UNL1 0.000
     6 C      -4.672663     4.145596     0.972557 C          1 UNL1 0.000
     7 N      -3.910205     0.462670     0.627989 N          1 UNL1 0.000
     8 C      -4.589458    -0.815782     0.698726 C          1 UNL1 0.000
     9 C      -5.854605    -0.948037     1.299675 C          1 UNL1 0.000
    10 C      -6.510832    -2.183089     1.355074 C          1 UNL1 0.000
    11 C      -5.905281    -3.320829     0.831279 C          1 UNL1 0.000
    12 C      -4.639569    -3.226591     0.264079 C          1 UNL1 0.000
    13 C      -3.988167    -1.990299     0.204808 C          1 UNL1 0.000
    14 C      -2.386597     0.292856     3.093750 C          1 UNL1 0.000
    15 C      -1.687930     0.228779     4.297392 C          1 UNL1 0.000
    16 C      -0.306370     0.241203     4.279965 C          1 UNL1 0.000
    17 C       0.363839     0.322781     3.059278 C          1 UNL1 0.000
    18 C      -0.318882     0.405129     1.815699 C          1 UNL1 0.000
    19 C      -1.732389     0.380898     1.837974 C          1 UNL1 0.000
    20 C       0.363653     0.513771     0.562014 C          1 UNL1 0.000
    21 C      -0.359691     0.573087    -0.671604 C          1 UNL1 0.000
    22 C      -1.772904     0.567619    -0.650346 C          1 UNL1 0.000
    23 C      -2.448506     0.471463     0.605116 C          1 UNL1 0.000
    24 C       0.283004     0.634237    -1.937364 C          1 UNL1 0.000
    25 C      -0.425122     0.691610    -3.137622 C          1 UNL1 0.000
    26 C      -1.806391     0.694582    -3.111870 C          1 UNL1 0.000
    27 C      -2.466350     0.633959    -1.886464 C          1 UNL1 0.000
    28 H      -6.436224     5.188500     0.315422 H          1 UNL1 0.000
    29 H      -7.487574     3.151665    -0.635417 H          1 UNL1 0.000
    30 H      -6.328381     0.993030    -0.538937 H          1 UNL1 0.000
    31 H      -3.043259     2.889946     1.532871 H          1 UNL1 0.000
    32 H      -4.199278     5.035780     1.378610 H          1 UNL1 0.000
    33 H      -6.342003    -0.089630     1.754597 H          1 UNL1 0.000
    34 H      -7.492777    -2.254080     1.815433 H          1 UNL1 0.000
    35 H      -6.412914    -4.280674     0.874112 H          1 UNL1 0.000
    36 H      -4.152086    -4.112218    -0.135566 H          1 UNL1 0.000
    37 H      -3.002593    -1.963932    -0.252413 H          1 UNL1 0.000
    38 H      -3.473979     0.279891     3.145069 H          1 UNL1 0.000
    39 H      -2.227713     0.164455     5.238065 H          1 UNL1 0.000
    40 H       0.254736     0.182355     5.208568 H          1 UNL1 0.000
    41 H       1.451682     0.310400     3.094564 H          1 UNL1 0.000
    42 H       1.369198     0.615334    -2.007612 H          1 UNL1 0.000
    43 H       0.106795     0.725101    -4.084358 H          1 UNL1 0.000
    44 H      -2.375864     0.733896    -4.036165 H          1 UNL1 0.000
    45 H      -3.554606     0.624027    -1.905396 H          1 UNL1 0.000
    46 C       1.837399     0.600771     0.540761 C          1 UNL1 0.000
    47 N       2.500998    -0.564230     0.319039 N          1 UNL1 0.000
    48 C       3.855190    -0.519178     0.280225 C          1 UNL1 0.000
    49 C       4.573169     0.649537     0.465305 C          1 UNL1 0.000
    50 C       3.892084     1.844270     0.696708 C          1 UNL1 0.000
    51 C       2.498558     1.817925     0.728389 C          1 UNL1 0.000
    52 N       6.021699     0.616722     0.419056 N          1 UNL1 0.000
    53 O       6.632490     1.476576     1.066054 O          1 UNL1 0.000
    54 O       6.551909    -0.268350    -0.267588 O          1 UNL1 0.000
    55 H       4.335947    -1.477302     0.098152 H          1 UNL1 0.000
    56 H       4.421765     2.782077     0.843848 H          1 UNL1 0.000
    57 H       1.933574     2.730604     0.897753 H          1 UNL1 0.000
@<TRIPOS>BOND
     1      1      2   2
     2      2      3   1
     3      3      4   2
     4      4      5   1
     5      5      6   2
     6      6      1   1
     7      4      7   1
     8      7      8   1
     9      8      9   2
    10      9     10   1
    11     10     11   2
    12     11     12   1
    13     12     13   2
    14     13      8   1
    15     14     15   2
    16     15     16   1
    17     16     17   2
    18     17     18   1
    19     18     19   2
    20     19     14   1
    21     18     20   1
    22     20     21   2
    23     21     22   1
    24     22     23   2
    25     23     19   1
    26     21     24   1
    27     24     25   2
    28     25     26   1
    29     26     27   2
    30     27     22   1
    31      7     23   1
    32      1     28   1
    33      2     29   1
    34      3     30   1
    35      5     31   1
    36      6     32   1
    37      9     33   1
    38     10     34   1
    39     11     35   1
    40     12     36   1
    41     13     37   1
    42     14     38   1
    43     15     39   1
    44     16     40   1
    45     17     41   1
    46     24     42   1
    47     25     43   1
    48     26     44   1
    49     27     45   1
    50     46     47   2
    51     47     48   1
    52     48     49   2
    53     49     50   1
    54     50     51   2
    55     51     46   1
    56     52     53   2
    57     52     54   1
    58     49     52   1
    59     48     55   1
    60     50     56   1
    61     51     57   1
    62     20     46   1
