# Produced with molli package
@<TRIPOS>MOLECULE
A_3_K
58 63 0 0 0
SMALL
USER_CHARGES

@<TRIPOS>ATOM
     1 C      -5.739144     4.375689     0.298309 C          1 UNL1 0.000
     2 C      -6.428015     3.252112    -0.145855 C          1 UNL1 0.000
     3 C      -5.819932     1.989763    -0.111906 C          1 UNL1 0.000
     4 C      -4.527112     1.808856     0.409233 C          1 UNL1 0.000
     5 C      -3.842324     2.975071     0.815111 C          1 UNL1 0.000
     6 C      -4.437986     4.239852     0.763345 C          1 UNL1 0.000
     7 N      -3.892424     0.503486     0.489346 N          1 UNL1 0.000
     8 C      -4.603427    -0.761412     0.567568 C          1 UNL1 0.000
     9 C      -5.905411    -0.864970     1.087436 C          1 UNL1 0.000
    10 C      -6.586450    -2.089195     1.123925 C          1 UNL1 0.000
    11 C      -5.964108    -3.251897     0.682504 C          1 UNL1 0.000
    12 C      -4.657074    -3.193213     0.217111 C          1 UNL1 0.000
    13 C      -3.987893    -1.965711     0.163261 C          1 UNL1 0.000
    14 C      -2.437346     0.418724     2.999333 C          1 UNL1 0.000
    15 C      -1.772344     0.420316     4.223264 C          1 UNL1 0.000
    16 C      -0.390759     0.420540     4.242820 C          1 UNL1 0.000
    17 C       0.313000     0.416798     3.038271 C          1 UNL1 0.000
    18 C      -0.334706     0.419117     1.773701 C          1 UNL1 0.000
    19 C      -1.747808     0.423134     1.759460 C          1 UNL1 0.000
    20 C       0.382230     0.427169     0.533775 C          1 UNL1 0.000
    21 C      -0.307942     0.442473    -0.721029 C          1 UNL1 0.000
    22 C      -1.720784     0.473918    -0.736629 C          1 UNL1 0.000
    23 C      -2.428728     0.462026     0.504072 C          1 UNL1 0.000
    24 C       0.366248     0.423968    -1.971458 C          1 UNL1 0.000
    25 C      -0.312029     0.432325    -3.190550 C          1 UNL1 0.000
    26 C      -1.693373     0.468410    -3.200194 C          1 UNL1 0.000
    27 C      -2.383879     0.492946    -1.990628 C          1 UNL1 0.000
    28 H      -6.208485     5.355254     0.269273 H          1 UNL1 0.000
    29 H      -7.439904     3.354810    -0.529289 H          1 UNL1 0.000
    30 H      -6.377109     1.152660    -0.522322 H          1 UNL1 0.000
    31 H      -2.825606     2.925014     1.194840 H          1 UNL1 0.000
    32 H      -3.879362     5.112796     1.091210 H          1 UNL1 0.000
    33 H      -6.412447     0.004166     1.496351 H          1 UNL1 0.000
    34 H      -7.602559    -2.131574     1.507638 H          1 UNL1 0.000
    35 H      -6.489881    -4.202310     0.714021 H          1 UNL1 0.000
    36 H      -4.150827    -4.098235    -0.108841 H          1 UNL1 0.000
    37 H      -2.969803    -1.974641    -0.216118 H          1 UNL1 0.000
    38 H      -3.525911     0.426522     3.020679 H          1 UNL1 0.000
    39 H      -2.337975     0.425378     5.150811 H          1 UNL1 0.000
    40 H       0.144866     0.424836     5.188178 H          1 UNL1 0.000
    41 H       1.399441     0.417630     3.104213 H          1 UNL1 0.000
    42 H       1.453497     0.395721    -2.014177 H          1 UNL1 0.000
    43 H       0.243057     0.410233    -4.124391 H          1 UNL1 0.000
    44 H      -2.239125     0.474297    -4.139593 H          1 UNL1 0.000
    45 H      -3.471669     0.514692    -2.034486 H          1 UNL1 0.000
    46 C       1.864166     0.430764     0.550255 C          1 UNL1 0.000
    47 C       2.571218     1.649401     0.550156 C          1 UNL1 0.000
    48 C       3.966149     1.663991     0.567071 C          1 UNL1 0.000
    49 C       4.644788     0.445087     0.588988 C          1 UNL1 0.000
    50 C       3.977585    -0.780725     0.591326 C          1 UNL1 0.000
    51 C       2.582278    -0.780685     0.569075 C          1 UNL1 0.000
    52 N       6.090147     0.452593     0.612110 N          1 UNL1 0.000
    53 O       6.634111     0.252988     1.704501 O          1 UNL1 0.000
    54 O       6.666148     0.658959    -0.464089 O          1 UNL1 0.000
    55 H       2.025212     2.591954     0.537363 H          1 UNL1 0.000
    56 H       4.503342     2.608872     0.566671 H          1 UNL1 0.000
    57 H       4.524332    -1.719947     0.607826 H          1 UNL1 0.000
    58 H       2.045533    -1.728517     0.567888 H          1 UNL1 0.000
@<TRIPOS>BOND
     1      1      2   2
     2      2      3   1
     3      3      4   2
     4      4      5   1
     5      5      6   2
     6      6      1   1
     7      4      7   1
     8      7      8   1
     9      8      9   2
    10      9     10   1
    11     10     11   2
    12     11     12   1
    13     12     13   2
    14     13      8   1
    15     14     15   2
    16     15     16   1
    17     16     17   2
    18     17     18   1
    19     18     19   2
    20     19     14   1
    21     18     20   1
    22     20     21   2
    23     21     22   1
    24     22     23   2
    25     23     19   1
    26     21     24   1
    27     24     25   2
    28     25     26   1
    29     26     27   2
    30     27     22   1
    31      7     23   1
    32      1     28   1
    33      2     29   1
    34      3     30   1
    35      5     31   1
    36      6     32   1
    37      9     33   1
    38     10     34   1
    39     11     35   1
    40     12     36   1
    41     13     37   1
    42     14     38   1
    43     15     39   1
    44     16     40   1
    45     17     41   1
    46     24     42   1
    47     25     43   1
    48     26     44   1
    49     27     45   1
    50     46     47   2
    51     47     48   1
    52     48     49   2
    53     49     50   1
    54     50     51   2
    55     51     46   1
    56     52     53   2
    57     52     54   1
    58     49     52   1
    59     47     55   1
    60     48     56   1
    61     50     57   1
    62     51     58   1
    63     20     46   1
