# Produced with molli package
@<TRIPOS>MOLECULE
A_3_O
55 60 0 0 0
SMALL
USER_CHARGES

@<TRIPOS>ATOM
     1 C      -5.843614     4.373600     0.367621 C          1 UNL1 0.000
     2 C      -6.483888     3.248043    -0.140776 C          1 UNL1 0.000
     3 C      -5.857538     1.996542    -0.088757 C          1 UNL1 0.000
     4 C      -4.591230     1.832836     0.500719 C          1 UNL1 0.000
     5 C      -3.954029     2.997721     0.975382 C          1 UNL1 0.000
     6 C      -4.572521     4.250803     0.915201 C          1 UNL1 0.000
     7 N      -3.939991     0.537993     0.578567 N          1 UNL1 0.000
     8 C      -4.649211    -0.725082     0.659320 C          1 UNL1 0.000
     9 C      -5.937428    -0.822963     1.215427 C          1 UNL1 0.000
    10 C      -6.621827    -2.043536     1.267844 C          1 UNL1 0.000
    11 C      -6.019373    -3.204784     0.795511 C          1 UNL1 0.000
    12 C      -4.729070    -3.148092     0.282771 C          1 UNL1 0.000
    13 C      -4.052977    -1.924909     0.220187 C          1 UNL1 0.000
    14 C      -2.438767     0.420845     3.062813 C          1 UNL1 0.000
    15 C      -1.750369     0.415011     4.274134 C          1 UNL1 0.000
    16 C      -0.368869     0.445243     4.268178 C          1 UNL1 0.000
    17 C       0.311830     0.472536     3.050931 C          1 UNL1 0.000
    18 C      -0.359971     0.474116     1.799195 C          1 UNL1 0.000
    19 C      -1.773113     0.458103     1.810278 C          1 UNL1 0.000
    20 C       0.335239     0.501216     0.548340 C          1 UNL1 0.000
    21 C      -0.376735     0.542164    -0.692601 C          1 UNL1 0.000
    22 C      -1.790023     0.553204    -0.683936 C          1 UNL1 0.000
    23 C      -2.477249     0.509920     0.568130 C          1 UNL1 0.000
    24 C       0.277744     0.569830    -1.953251 C          1 UNL1 0.000
    25 C      -0.420056     0.590358    -3.161024 C          1 UNL1 0.000
    26 C      -1.801816     0.595319    -3.148012 C          1 UNL1 0.000
    27 C      -2.473147     0.582932    -1.927222 C          1 UNL1 0.000
    28 H      -6.327044     5.345799     0.325931 H          1 UNL1 0.000
    29 H      -7.469994     3.341391    -0.587983 H          1 UNL1 0.000
    30 H      -6.371505     1.151656    -0.538950 H          1 UNL1 0.000
    31 H      -2.961919     2.953003     1.416704 H          1 UNL1 0.000
    32 H      -4.054068     5.125936     1.298648 H          1 UNL1 0.000
    33 H      -6.426213     0.050824     1.637798 H          1 UNL1 0.000
    34 H      -7.624075    -2.083941     1.686376 H          1 UNL1 0.000
    35 H      -6.548520    -4.152912     0.837368 H          1 UNL1 0.000
    36 H      -4.241939    -4.052265    -0.073060 H          1 UNL1 0.000
    37 H      -3.049212    -1.930305    -0.195685 H          1 UNL1 0.000
    38 H      -3.526481     0.411130     3.104322 H          1 UNL1 0.000
    39 H      -2.298068     0.398043     5.212084 H          1 UNL1 0.000
    40 H       0.185105     0.455496     5.202637 H          1 UNL1 0.000
    41 H       1.399263     0.514195     3.093383 H          1 UNL1 0.000
    42 H       1.365139     0.584751    -2.010116 H          1 UNL1 0.000
    43 H       0.120985     0.608295    -4.102909 H          1 UNL1 0.000
    44 H      -2.362669     0.612689    -4.078151 H          1 UNL1 0.000
    45 H      -3.561326     0.587090    -1.953754 H          1 UNL1 0.000
    46 C       1.811257     0.465683     0.538416 C          1 UNL1 0.000
    47 N       2.432717     1.670817     0.555040 N          1 UNL1 0.000
    48 C       3.782917     1.672143     0.550371 C          1 UNL1 0.000
    49 C       4.554717     0.522779     0.530039 C          1 UNL1 0.000
    50 C       3.904650    -0.705372     0.512921 C          1 UNL1 0.000
    51 C       2.513027    -0.739274     0.517112 C          1 UNL1 0.000
    52 H       4.242741     2.656214     0.564332 H          1 UNL1 0.000
    53 H       5.637159     0.584265     0.527887 H          1 UNL1 0.000
    54 H       4.475133    -1.629515     0.497092 H          1 UNL1 0.000
    55 H       1.983614    -1.686688     0.505124 H          1 UNL1 0.000
@<TRIPOS>BOND
     1      1      2   2
     2      2      3   1
     3      3      4   2
     4      4      5   1
     5      5      6   2
     6      6      1   1
     7      4      7   1
     8      7      8   1
     9      8      9   2
    10      9     10   1
    11     10     11   2
    12     11     12   1
    13     12     13   2
    14     13      8   1
    15     14     15   2
    16     15     16   1
    17     16     17   2
    18     17     18   1
    19     18     19   2
    20     19     14   1
    21     18     20   1
    22     20     21   2
    23     21     22   1
    24     22     23   2
    25     23     19   1
    26     21     24   1
    27     24     25   2
    28     25     26   1
    29     26     27   2
    30     27     22   1
    31      7     23   1
    32      1     28   1
    33      2     29   1
    34      3     30   1
    35      5     31   1
    36      6     32   1
    37      9     33   1
    38     10     34   1
    39     11     35   1
    40     12     36   1
    41     13     37   1
    42     14     38   1
    43     15     39   1
    44     16     40   1
    45     17     41   1
    46     24     42   1
    47     25     43   1
    48     26     44   1
    49     27     45   1
    50     46     47   2
    51     47     48   1
    52     48     49   2
    53     49     50   1
    54     50     51   2
    55     51     46   1
    56     48     52   1
    57     49     53   1
    58     50     54   1
    59     51     55   1
    60     20     46   1
