# Produced with molli package
@<TRIPOS>MOLECULE
A_4_T
51 54 0 0 0
SMALL
USER_CHARGES

@<TRIPOS>ATOM
     1 C      -5.137380     4.212387     2.116348 C          1 UNL1 0.000
     2 C      -5.720056     3.064152     2.644215 C          1 UNL1 0.000
     3 C      -5.055930     1.835237     2.558299 C          1 UNL1 0.000
     4 C      -3.804948     1.721943     1.925448 C          1 UNL1 0.000
     5 C      -3.228017     2.904554     1.422039 C          1 UNL1 0.000
     6 C      -3.887495     4.134624     1.511768 C          1 UNL1 0.000
     7 N      -3.120414     0.452684     1.816723 N          1 UNL1 0.000
     8 C      -3.812109    -0.811924     1.711213 C          1 UNL1 0.000
     9 C      -5.055096    -0.922192     1.062720 C          1 UNL1 0.000
    10 C      -5.727388    -2.146722     0.981705 C          1 UNL1 0.000
    11 C      -5.160793    -3.293039     1.531057 C          1 UNL1 0.000
    12 C      -3.918477    -3.218013     2.151851 C          1 UNL1 0.000
    13 C      -3.250418    -1.992257     2.235951 C          1 UNL1 0.000
    14 C      -1.682966     0.448733     1.803601 C          1 UNL1 0.000
    15 C      -0.964987     0.582436     2.999166 C          1 UNL1 0.000
    16 C       0.425567     0.557679     2.970381 C          1 UNL1 0.000
    17 C       1.114099     0.485685     1.760929 C          1 UNL1 0.000
    18 C       0.414107     0.375428     0.551664 C          1 UNL1 0.000
    19 C      -0.987574     0.327624     0.587493 C          1 UNL1 0.000
    20 O       1.148997     0.663747     4.126951 O          1 UNL1 0.000
    21 C       1.210821    -0.605972     4.778963 C          1 UNL1 0.000
    22 H      -5.652094     5.167146     2.182799 H          1 UNL1 0.000
    23 H      -6.690569     3.121723     3.129948 H          1 UNL1 0.000
    24 H      -5.524899     0.965100     3.010716 H          1 UNL1 0.000
    25 H      -2.258218     2.883826     0.932196 H          1 UNL1 0.000
    26 H      -3.420896     5.028251     1.105418 H          1 UNL1 0.000
    27 H      -5.510310    -0.052742     0.594842 H          1 UNL1 0.000
    28 H      -6.691715    -2.202267     0.483501 H          1 UNL1 0.000
    29 H      -5.682737    -4.244211     1.469087 H          1 UNL1 0.000
    30 H      -3.465823    -4.110548     2.575820 H          1 UNL1 0.000
    31 H      -2.288068    -1.970709     2.739659 H          1 UNL1 0.000
    32 H      -1.493204     0.689677     3.941737 H          1 UNL1 0.000
    33 H       2.200937     0.523834     1.762540 H          1 UNL1 0.000
    34 H      -1.551800     0.235472    -0.338721 H          1 UNL1 0.000
    35 H       1.974592    -0.545610     5.559969 H          1 UNL1 0.000
    36 H       1.500293    -1.406055     4.086989 H          1 UNL1 0.000
    37 H       0.253380    -0.843283     5.254437 H          1 UNL1 0.000
    38 C       1.138261     0.353354    -0.720272 C          1 UNL1 0.000
    39 C       1.721387    -0.826053    -1.200498 C          1 UNL1 0.000
    40 C       2.444639    -0.829181    -2.397458 C          1 UNL1 0.000
    41 C       2.598318     0.348660    -3.136565 C          1 UNL1 0.000
    42 C       2.013090     1.528155    -2.664366 C          1 UNL1 0.000
    43 C       1.289111     1.529038    -1.469515 C          1 UNL1 0.000
    44 C       3.390139     0.365775    -4.410144 C          1 UNL1 0.000
    45 H       1.618629    -1.752116    -0.639052 H          1 UNL1 0.000
    46 H       2.890453    -1.758843    -2.743154 H          1 UNL1 0.000
    47 H       2.123240     2.456666    -3.220003 H          1 UNL1 0.000
    48 H       0.852064     2.460350    -1.114832 H          1 UNL1 0.000
    49 H       4.261900     1.019182    -4.301429 H          1 UNL1 0.000
    50 H       2.769822     0.727613    -5.236374 H          1 UNL1 0.000
    51 H       3.749237    -0.634353    -4.673655 H          1 UNL1 0.000
@<TRIPOS>BOND
     1      1      2   2
     2      2      3   1
     3      3      4   2
     4      4      5   1
     5      5      6   2
     6      6      1   1
     7      4      7   1
     8      7      8   1
     9      8      9   2
    10      9     10   1
    11     10     11   2
    12     11     12   1
    13     12     13   2
    14     13      8   1
    15     14     15   2
    16     15     16   1
    17     16     17   2
    18     17     18   1
    19     18     19   2
    20     19     14   1
    21     20     21   1
    22     16     20   1
    23      7     14   1
    24      1     22   1
    25      2     23   1
    26      3     24   1
    27      5     25   1
    28      6     26   1
    29      9     27   1
    30     10     28   1
    31     11     29   1
    32     12     30   1
    33     13     31   1
    34     15     32   1
    35     17     33   1
    36     19     34   1
    37     21     35   1
    38     21     36   1
    39     21     37   1
    40     38     39   2
    41     39     40   1
    42     40     41   2
    43     41     42   1
    44     42     43   2
    45     43     38   1
    46     41     44   1
    47     39     45   1
    48     40     46   1
    49     42     47   1
    50     43     48   1
    51     44     49   1
    52     44     50   1
    53     44     51   1
    54     18     38   1
