# Produced with molli package
@<TRIPOS>MOLECULE
A_4_P
52 55 0 0 0
SMALL
USER_CHARGES

@<TRIPOS>ATOM
     1 C      -5.148031     4.293362     1.554187 C          1 UNL1 0.000
     2 C      -5.737391     3.145572     1.033381 C          1 UNL1 0.000
     3 C      -5.065951     1.919210     1.097583 C          1 UNL1 0.000
     4 C      -3.801373     1.806475     1.703439 C          1 UNL1 0.000
     5 C      -3.218021     2.989528     2.198382 C          1 UNL1 0.000
     6 C      -3.884313     4.217524     2.129295 C          1 UNL1 0.000
     7 N      -3.109949     0.538943     1.791133 N          1 UNL1 0.000
     8 C      -3.793911    -0.732353     1.883294 C          1 UNL1 0.000
     9 C      -5.032252    -0.858860     2.538234 C          1 UNL1 0.000
    10 C      -5.699361    -2.087480     2.604903 C          1 UNL1 0.000
    11 C      -5.131028    -3.223616     2.036874 C          1 UNL1 0.000
    12 C      -3.891982    -3.134344     1.412138 C          1 UNL1 0.000
    13 C      -3.229976    -1.904216     1.341325 C          1 UNL1 0.000
    14 C      -1.672277     0.540618     1.770078 C          1 UNL1 0.000
    15 C      -0.947652     0.459835     2.967352 C          1 UNL1 0.000
    16 C       0.443642     0.466835     2.931636 C          1 UNL1 0.000
    17 C       1.123347     0.537429     1.716912 C          1 UNL1 0.000
    18 C       0.417108     0.579811     0.506679 C          1 UNL1 0.000
    19 C      -0.984084     0.612482     0.546303 C          1 UNL1 0.000
    20 O       1.188627     0.479101     4.079127 O          1 UNL1 0.000
    21 C       1.129287    -0.784145     4.739079 C          1 UNL1 0.000
    22 H      -5.668323     5.246124     1.504822 H          1 UNL1 0.000
    23 H      -6.718822     3.201207     0.569800 H          1 UNL1 0.000
    24 H      -5.541412     1.050790     0.648557 H          1 UNL1 0.000
    25 H      -2.237313     2.972184     2.666122 H          1 UNL1 0.000
    26 H      -3.412022     5.110972     2.529546 H          1 UNL1 0.000
    27 H      -5.489818     0.001266     3.020770 H          1 UNL1 0.000
    28 H      -6.661921    -2.153909     3.105226 H          1 UNL1 0.000
    29 H      -5.649309    -4.177549     2.086004 H          1 UNL1 0.000
    30 H      -3.437543    -4.018356     0.972234 H          1 UNL1 0.000
    31 H      -2.271232    -1.874840     0.831185 H          1 UNL1 0.000
    32 H      -1.475712     0.427868     3.915560 H          1 UNL1 0.000
    33 H       2.210927     0.543354     1.715561 H          1 UNL1 0.000
    34 H      -1.554168     0.655498    -0.379925 H          1 UNL1 0.000
    35 H       1.880520    -0.778643     5.534706 H          1 UNL1 0.000
    36 H       1.370315    -1.604486     4.053428 H          1 UNL1 0.000
    37 H       0.149074    -0.942513     5.199494 H          1 UNL1 0.000
    38 C       1.134910     0.534499    -0.768312 C          1 UNL1 0.000
    39 C       1.358082     1.694929    -1.522205 C          1 UNL1 0.000
    40 C       2.072061     1.636354    -2.723526 C          1 UNL1 0.000
    41 C       2.572362     0.415203    -3.173305 C          1 UNL1 0.000
    42 C       2.324565    -0.752135    -2.458629 C          1 UNL1 0.000
    43 C       1.619806    -0.690541    -1.255766 C          1 UNL1 0.000
    44 O       3.263406     0.295148    -4.347866 O          1 UNL1 0.000
    45 C       4.470757     1.055442    -4.324755 C          1 UNL1 0.000
    46 H       0.977444     2.652876    -1.174063 H          1 UNL1 0.000
    47 H       2.218863     2.542349    -3.302890 H          1 UNL1 0.000
    48 H       2.689761    -1.705672    -2.828721 H          1 UNL1 0.000
    49 H       1.446141    -1.607384    -0.696220 H          1 UNL1 0.000
    50 H       5.082869     0.734868    -5.173194 H          1 UNL1 0.000
    51 H       5.043900     0.871574    -3.408421 H          1 UNL1 0.000
    52 H       4.265399     2.123899    -4.442501 H          1 UNL1 0.000
@<TRIPOS>BOND
     1      1      2   2
     2      2      3   1
     3      3      4   2
     4      4      5   1
     5      5      6   2
     6      6      1   1
     7      4      7   1
     8      7      8   1
     9      8      9   2
    10      9     10   1
    11     10     11   2
    12     11     12   1
    13     12     13   2
    14     13      8   1
    15     14     15   2
    16     15     16   1
    17     16     17   2
    18     17     18   1
    19     18     19   2
    20     19     14   1
    21     20     21   1
    22     16     20   1
    23      7     14   1
    24      1     22   1
    25      2     23   1
    26      3     24   1
    27      5     25   1
    28      6     26   1
    29      9     27   1
    30     10     28   1
    31     11     29   1
    32     12     30   1
    33     13     31   1
    34     15     32   1
    35     17     33   1
    36     19     34   1
    37     21     35   1
    38     21     36   1
    39     21     37   1
    40     38     39   2
    41     39     40   1
    42     40     41   2
    43     41     42   1
    44     42     43   2
    45     43     38   1
    46     44     45   1
    47     41     44   1
    48     39     46   1
    49     40     47   1
    50     42     48   1
    51     43     49   1
    52     45     50   1
    53     45     51   1
    54     45     52   1
    55     18     38   1
