# Produced with molli package
@<TRIPOS>MOLECULE
A_4_L
52 56 0 0 0
SMALL
USER_CHARGES

@<TRIPOS>ATOM
     1 C      -5.179345     4.161636     2.061743 C          1 UNL1 0.000
     2 C      -5.752565     3.013834     2.601122 C          1 UNL1 0.000
     3 C      -5.084052     1.786570     2.518114 C          1 UNL1 0.000
     4 C      -3.839386     1.673777     1.873803 C          1 UNL1 0.000
     5 C      -3.272886     2.856688     1.357234 C          1 UNL1 0.000
     6 C      -3.934915     4.085239     1.446645 C          1 UNL1 0.000
     7 N      -3.143335     0.409194     1.770229 N          1 UNL1 0.000
     8 C      -3.815634    -0.867882     1.679721 C          1 UNL1 0.000
     9 C      -5.085655    -0.997991     1.089888 C          1 UNL1 0.000
    10 C      -5.738379    -2.234786     1.028736 C          1 UNL1 0.000
    11 C      -5.123466    -3.376226     1.533787 C          1 UNL1 0.000
    12 C      -3.852777    -3.283755     2.090492 C          1 UNL1 0.000
    13 C      -3.206524    -2.045150     2.158593 C          1 UNL1 0.000
    14 C      -1.705378     0.428811     1.776898 C          1 UNL1 0.000
    15 C      -1.008625     0.580763     2.982482 C          1 UNL1 0.000
    16 C       0.381758     0.599638     2.972641 C          1 UNL1 0.000
    17 C       1.087194     0.558417     1.771594 C          1 UNL1 0.000
    18 C       0.409377     0.425942     0.550493 C          1 UNL1 0.000
    19 C      -0.990791     0.326101     0.570408 C          1 UNL1 0.000
    20 O       1.087342     0.721183     4.138739 O          1 UNL1 0.000
    21 C       1.145043    -0.541166     4.805499 C          1 UNL1 0.000
    22 H      -5.696493     5.115088     2.127814 H          1 UNL1 0.000
    23 H      -6.718941     3.071111     3.095099 H          1 UNL1 0.000
    24 H      -5.544339     0.918995     2.983674 H          1 UNL1 0.000
    25 H      -2.307289     2.838152     0.858603 H          1 UNL1 0.000
    26 H      -3.473833     4.978056     1.032187 H          1 UNL1 0.000
    27 H      -5.581464    -0.135067     0.652540 H          1 UNL1 0.000
    28 H      -6.726031    -2.303165     0.580162 H          1 UNL1 0.000
    29 H      -5.629659    -4.336667     1.486557 H          1 UNL1 0.000
    30 H      -3.360495    -4.172115     2.477457 H          1 UNL1 0.000
    31 H      -2.219925    -2.013930     2.612668 H          1 UNL1 0.000
    32 H      -1.553345     0.672550     3.917163 H          1 UNL1 0.000
    33 H       2.172591     0.626638     1.790481 H          1 UNL1 0.000
    34 H      -1.542789     0.228261    -0.362641 H          1 UNL1 0.000
    35 H       1.863190    -0.455030     5.626303 H          1 UNL1 0.000
    36 H       1.493362    -1.336166     4.135288 H          1 UNL1 0.000
    37 H       0.170579    -0.802817     5.231326 H          1 UNL1 0.000
    38 C       1.149008     0.440106    -0.717030 C          1 UNL1 0.000
    39 C       1.182859    -0.686846    -1.549257 C          1 UNL1 0.000
    40 C       1.891702    -0.691490    -2.758155 C          1 UNL1 0.000
    41 C       2.566277     0.480244    -3.117367 C          1 UNL1 0.000
    42 C       2.554005     1.626456    -2.325696 C          1 UNL1 0.000
    43 C       1.839300     1.602962    -1.112651 C          1 UNL1 0.000
    44 N       3.330923     0.764141    -4.227285 N          1 UNL1 0.000
    45 C       3.794472     2.052487    -4.164956 C          1 UNL1 0.000
    46 C       3.328196     2.611737    -2.998060 C          1 UNL1 0.000
    47 H       0.655329    -1.591963    -1.251921 H          1 UNL1 0.000
    48 H       1.912218    -1.575800    -3.386026 H          1 UNL1 0.000
    49 H       1.817551     2.492386    -0.487903 H          1 UNL1 0.000
    50 H       3.517401     0.113234    -4.975947 H          1 UNL1 0.000
    51 H       4.413807     2.458062    -4.953876 H          1 UNL1 0.000
    52 H       3.521141     3.621472    -2.659546 H          1 UNL1 0.000
@<TRIPOS>BOND
     1      1      2   2
     2      2      3   1
     3      3      4   2
     4      4      5   1
     5      5      6   2
     6      6      1   1
     7      4      7   1
     8      7      8   1
     9      8      9   2
    10      9     10   1
    11     10     11   2
    12     11     12   1
    13     12     13   2
    14     13      8   1
    15     14     15   2
    16     15     16   1
    17     16     17   2
    18     17     18   1
    19     18     19   2
    20     19     14   1
    21     20     21   1
    22     16     20   1
    23      7     14   1
    24      1     22   1
    25      2     23   1
    26      3     24   1
    27      5     25   1
    28      6     26   1
    29      9     27   1
    30     10     28   1
    31     11     29   1
    32     12     30   1
    33     13     31   1
    34     15     32   1
    35     17     33   1
    36     19     34   1
    37     21     35   1
    38     21     36   1
    39     21     37   1
    40     38     39   2
    41     39     40   1
    42     40     41   2
    43     41     42   1
    44     42     43   2
    45     43     38   1
    46     41     44   1
    47     44     45   1
    48     45     46   2
    49     46     42   1
    50     39     47   1
    51     40     48   1
    52     43     49   1
    53     44     50   1
    54     45     51   1
    55     46     52   1
    56     18     38   1
