# Produced with molli package
@<TRIPOS>MOLECULE
A_4_N
45 48 0 0 0
SMALL
USER_CHARGES

@<TRIPOS>ATOM
     1 C      -5.245582     4.270586     1.493668 C          1 UNL1 0.000
     2 C      -5.800991     3.122746     0.935771 C          1 UNL1 0.000
     3 C      -5.137704     1.895756     1.046452 C          1 UNL1 0.000
     4 C      -3.913843     1.786545     1.730590 C          1 UNL1 0.000
     5 C      -3.363578     2.966927     2.266646 C          1 UNL1 0.000
     6 C      -4.023715     4.194517     2.154131 C          1 UNL1 0.000
     7 N      -3.226203     0.521708     1.859299 N          1 UNL1 0.000
     8 C      -3.918217    -0.743000     1.955971 C          1 UNL1 0.000
     9 C      -5.173654    -0.848543     2.581529 C          1 UNL1 0.000
    10 C      -5.850975    -2.070785     2.652204 C          1 UNL1 0.000
    11 C      -5.278039    -3.219304     2.114397 C          1 UNL1 0.000
    12 C      -4.024512    -3.148717     1.515750 C          1 UNL1 0.000
    13 C      -3.350666    -1.925348     1.442739 C          1 UNL1 0.000
    14 C      -1.789157     0.524167     1.835549 C          1 UNL1 0.000
    15 C      -1.059524     0.380929     3.025061 C          1 UNL1 0.000
    16 C       0.333841     0.414744     2.990691 C          1 UNL1 0.000
    17 C       1.011981     0.582255     1.784830 C          1 UNL1 0.000
    18 C       0.292376     0.681746     0.591273 C          1 UNL1 0.000
    19 C      -1.105829     0.677213     0.618479 C          1 UNL1 0.000
    20 O       1.083092     0.364808     4.134758 O          1 UNL1 0.000
    21 C       0.991877    -0.915983     4.756472 C          1 UNL1 0.000
    22 H      -5.760277     5.223932     1.408248 H          1 UNL1 0.000
    23 H      -6.749080     3.179543     0.407406 H          1 UNL1 0.000
    24 H      -5.582613     1.024543     0.572118 H          1 UNL1 0.000
    25 H      -2.417147     2.943668     2.800604 H          1 UNL1 0.000
    26 H      -3.580438     5.087793     2.586602 H          1 UNL1 0.000
    27 H      -5.636435     0.024017     3.036242 H          1 UNL1 0.000
    28 H      -6.825332    -2.122318     3.131069 H          1 UNL1 0.000
    29 H      -5.804928    -4.168424     2.165923 H          1 UNL1 0.000
    30 H      -3.568712    -4.042662     1.097962 H          1 UNL1 0.000
    31 H      -2.380916    -1.907887     0.952974 H          1 UNL1 0.000
    32 H      -1.586707     0.287391     3.969854 H          1 UNL1 0.000
    33 H       2.098479     0.612375     1.780645 H          1 UNL1 0.000
    34 H      -1.674440     0.776009    -0.303606 H          1 UNL1 0.000
    35 H       1.748205    -0.956279     5.546274 H          1 UNL1 0.000
    36 H       1.205511    -1.720561     4.043644 H          1 UNL1 0.000
    37 H       0.011242    -1.062000     5.219931 H          1 UNL1 0.000
    38 C       0.997977     0.762945    -0.673307 C          1 UNL1 0.000
    39 C       1.100636    -0.338768    -1.499657 C          1 UNL1 0.000
    40 S       1.998252    -0.003822    -2.917976 S          1 UNL1 0.000
    41 C       2.258997     1.616390    -2.434376 C          1 UNL1 0.000
    42 C       1.677363     1.894694    -1.216379 C          1 UNL1 0.000
    43 H       0.699111    -1.330880    -1.340817 H          1 UNL1 0.000
    44 H       2.827838     2.285093    -3.065282 H          1 UNL1 0.000
    45 H       1.732579     2.865868    -0.739824 H          1 UNL1 0.000
@<TRIPOS>BOND
     1      1      2   2
     2      2      3   1
     3      3      4   2
     4      4      5   1
     5      5      6   2
     6      6      1   1
     7      4      7   1
     8      7      8   1
     9      8      9   2
    10      9     10   1
    11     10     11   2
    12     11     12   1
    13     12     13   2
    14     13      8   1
    15     14     15   2
    16     15     16   1
    17     16     17   2
    18     17     18   1
    19     18     19   2
    20     19     14   1
    21     20     21   1
    22     16     20   1
    23      7     14   1
    24      1     22   1
    25      2     23   1
    26      3     24   1
    27      5     25   1
    28      6     26   1
    29      9     27   1
    30     10     28   1
    31     11     29   1
    32     12     30   1
    33     13     31   1
    34     15     32   1
    35     17     33   1
    36     19     34   1
    37     21     35   1
    38     21     36   1
    39     21     37   1
    40     38     39   2
    41     39     40   1
    42     40     41   1
    43     41     42   2
    44     42     38   1
    45     39     43   1
    46     41     44   1
    47     42     45   1
    48     18     38   1
