# Produced with molli package
@<TRIPOS>MOLECULE
A_4_Q
46 49 0 0 0
SMALL
USER_CHARGES

@<TRIPOS>ATOM
     1 C      -5.185687     4.187934     1.578603 C          1 UNL1 0.000
     2 C      -5.735399     3.042928     1.009070 C          1 UNL1 0.000
     3 C      -5.067903     1.817638     1.110980 C          1 UNL1 0.000
     4 C      -3.844782     1.708045     1.796230 C          1 UNL1 0.000
     5 C      -3.299495     2.885409     2.343166 C          1 UNL1 0.000
     6 C      -3.964839     4.111014     2.241065 C          1 UNL1 0.000
     7 N      -3.155417     0.443801     1.915270 N          1 UNL1 0.000
     8 C      -3.847375    -0.818205     2.041377 C          1 UNL1 0.000
     9 C      -5.095850    -0.910446     2.683589 C          1 UNL1 0.000
    10 C      -5.772379    -2.130563     2.788538 C          1 UNL1 0.000
    11 C      -5.205918    -3.290116     2.268166 C          1 UNL1 0.000
    12 C      -3.960126    -3.231978     1.652011 C          1 UNL1 0.000
    13 C      -3.286802    -2.010689     1.544863 C          1 UNL1 0.000
    14 C      -1.719490     0.446657     1.867279 C          1 UNL1 0.000
    15 C      -0.971272     0.350205     3.047672 C          1 UNL1 0.000
    16 C       0.419150     0.390023     2.987971 C          1 UNL1 0.000
    17 C       1.072900     0.527884     1.763120 C          1 UNL1 0.000
    18 C       0.346577     0.582665     0.563206 C          1 UNL1 0.000
    19 C      -1.055330     0.555804     0.634056 C          1 UNL1 0.000
    20 O       1.201910     0.369645     4.110384 O          1 UNL1 0.000
    21 C       1.027988    -0.834700     4.855494 C          1 UNL1 0.000
    22 H      -5.704198     5.139868     1.500909 H          1 UNL1 0.000
    23 H      -6.682388     3.100626     0.478907 H          1 UNL1 0.000
    24 H      -5.507461     0.947221     0.629970 H          1 UNL1 0.000
    25 H      -2.354601     2.860741     2.879272 H          1 UNL1 0.000
    26 H      -3.526833     5.002044     2.683397 H          1 UNL1 0.000
    27 H      -5.553205    -0.028812     3.125977 H          1 UNL1 0.000
    28 H      -6.740545    -2.171562     3.280666 H          1 UNL1 0.000
    29 H      -5.731658    -4.237955     2.346427 H          1 UNL1 0.000
    30 H      -3.509004    -4.133995     1.246656 H          1 UNL1 0.000
    31 H      -2.323180    -2.004060     1.041630 H          1 UNL1 0.000
    32 H      -1.485785     0.285440     4.001404 H          1 UNL1 0.000
    33 H       2.160655     0.550261     1.750910 H          1 UNL1 0.000
    34 H      -1.643290     0.600450    -0.281658 H          1 UNL1 0.000
    35 H       1.809606    -0.867024     5.620647 H          1 UNL1 0.000
    36 H       1.145276    -1.717077     4.216209 H          1 UNL1 0.000
    37 H       0.059438    -0.851951     5.364421 H          1 UNL1 0.000
    38 C       1.029010     0.622473    -0.730771 C          1 UNL1 0.000
    39 N       0.745338    -0.396197    -1.584488 N          1 UNL1 0.000
    40 C       1.418126    -0.390295    -2.758235 C          1 UNL1 0.000
    41 C       2.331556     0.595993    -3.086929 C          1 UNL1 0.000
    42 N       2.615894     1.623796    -2.257644 N          1 UNL1 0.000
    43 C       1.947123     1.611693    -1.076664 C          1 UNL1 0.000
    44 H       1.204359    -1.212527    -3.431338 H          1 UNL1 0.000
    45 H       2.863161     0.583820    -4.031548 H          1 UNL1 0.000
    46 H       2.172225     2.435181    -0.407250 H          1 UNL1 0.000
@<TRIPOS>BOND
     1      1      2   2
     2      2      3   1
     3      3      4   2
     4      4      5   1
     5      5      6   2
     6      6      1   1
     7      4      7   1
     8      7      8   1
     9      8      9   2
    10      9     10   1
    11     10     11   2
    12     11     12   1
    13     12     13   2
    14     13      8   1
    15     14     15   2
    16     15     16   1
    17     16     17   2
    18     17     18   1
    19     18     19   2
    20     19     14   1
    21     20     21   1
    22     16     20   1
    23      7     14   1
    24      1     22   1
    25      2     23   1
    26      3     24   1
    27      5     25   1
    28      6     26   1
    29      9     27   1
    30     10     28   1
    31     11     29   1
    32     12     30   1
    33     13     31   1
    34     15     32   1
    35     17     33   1
    36     19     34   1
    37     21     35   1
    38     21     36   1
    39     21     37   1
    40     38     39   2
    41     39     40   1
    42     40     41   2
    43     41     42   1
    44     42     43   2
    45     43     38   1
    46     40     44   1
    47     41     45   1
    48     43     46   1
    49     18     38   1
