# Produced with molli package
@<TRIPOS>MOLECULE
A_4_K
50 53 0 0 0
SMALL
USER_CHARGES

@<TRIPOS>ATOM
     1 C      -5.105655     4.316476     1.500724 C          1 UNL1 0.000
     2 C      -5.703042     3.187081     0.949333 C          1 UNL1 0.000
     3 C      -5.055299     1.946979     1.007998 C          1 UNL1 0.000
     4 C      -3.810038     1.800478     1.644381 C          1 UNL1 0.000
     5 C      -3.217423     2.967301     2.169147 C          1 UNL1 0.000
     6 C      -3.857051     4.209157     2.101783 C          1 UNL1 0.000
     7 N      -3.137828     0.520953     1.731640 N          1 UNL1 0.000
     8 C      -3.830369    -0.748818     1.804852 C          1 UNL1 0.000
     9 C      -5.119480    -0.863815     2.355699 C          1 UNL1 0.000
    10 C      -5.790166    -2.092443     2.398902 C          1 UNL1 0.000
    11 C      -5.173843    -3.243907     1.920012 C          1 UNL1 0.000
    12 C      -3.884458    -3.169202     1.406591 C          1 UNL1 0.000
    13 C      -3.221914    -1.937953     1.352741 C          1 UNL1 0.000
    14 C      -1.699331     0.516900     1.719482 C          1 UNL1 0.000
    15 C      -0.980370     0.445638     2.919952 C          1 UNL1 0.000
    16 C       0.410409     0.474772     2.889172 C          1 UNL1 0.000
    17 C       1.097146     0.554202     1.678534 C          1 UNL1 0.000
    18 C       0.396290     0.591131     0.465019 C          1 UNL1 0.000
    19 C      -1.005937     0.597603     0.499172 C          1 UNL1 0.000
    20 O       1.132176     0.525204     4.050206 O          1 UNL1 0.000
    21 C       1.254647    -0.776322     4.620507 C          1 UNL1 0.000
    22 H      -5.607419     5.279352     1.455133 H          1 UNL1 0.000
    23 H      -6.673142     3.268496     0.465898 H          1 UNL1 0.000
    24 H      -5.535203     1.096445     0.530864 H          1 UNL1 0.000
    25 H      -2.248581     2.927177     2.659655 H          1 UNL1 0.000
    26 H      -3.376242     5.087540     2.524689 H          1 UNL1 0.000
    27 H      -5.620360     0.003795     2.777231 H          1 UNL1 0.000
    28 H      -6.793421    -2.146522     2.813781 H          1 UNL1 0.000
    29 H      -5.693259    -4.197882     1.954498 H          1 UNL1 0.000
    30 H      -3.389876    -4.065735     1.041730 H          1 UNL1 0.000
    31 H      -2.220662    -1.925895     0.931406 H          1 UNL1 0.000
    32 H      -1.509587     0.410887     3.867521 H          1 UNL1 0.000
    33 H       2.184092     0.589949     1.685754 H          1 UNL1 0.000
    34 H      -1.574608     0.641186    -0.428044 H          1 UNL1 0.000
    35 H       1.928051    -0.700487     5.479651 H          1 UNL1 0.000
    36 H       1.694641    -1.482258     3.907271 H          1 UNL1 0.000
    37 H       0.287184    -1.143524     4.977911 H          1 UNL1 0.000
    38 C       1.115939     0.602727    -0.810142 C          1 UNL1 0.000
    39 C       1.253705     1.790385    -1.548906 C          1 UNL1 0.000
    40 C       1.954902     1.801555    -2.756933 C          1 UNL1 0.000
    41 C       2.503814     0.606796    -3.229300 C          1 UNL1 0.000
    42 C       2.373610    -0.591139    -2.524434 C          1 UNL1 0.000
    43 C       1.684059    -0.583950    -1.310982 C          1 UNL1 0.000
    44 N       3.233277     0.610697    -4.484778 N          1 UNL1 0.000
    45 O       4.129845     1.453400    -4.615252 O          1 UNL1 0.000
    46 O       2.905876    -0.233337    -5.330814 O          1 UNL1 0.000
    47 H       0.818188     2.716116    -1.175252 H          1 UNL1 0.000
    48 H       2.062048     2.728819    -3.314517 H          1 UNL1 0.000
    49 H       2.803903    -1.516148    -2.900814 H          1 UNL1 0.000
    50 H       1.583465    -1.512702    -0.750918 H          1 UNL1 0.000
@<TRIPOS>BOND
     1      1      2   2
     2      2      3   1
     3      3      4   2
     4      4      5   1
     5      5      6   2
     6      6      1   1
     7      4      7   1
     8      7      8   1
     9      8      9   2
    10      9     10   1
    11     10     11   2
    12     11     12   1
    13     12     13   2
    14     13      8   1
    15     14     15   2
    16     15     16   1
    17     16     17   2
    18     17     18   1
    19     18     19   2
    20     19     14   1
    21     20     21   1
    22     16     20   1
    23      7     14   1
    24      1     22   1
    25      2     23   1
    26      3     24   1
    27      5     25   1
    28      6     26   1
    29      9     27   1
    30     10     28   1
    31     11     29   1
    32     12     30   1
    33     13     31   1
    34     15     32   1
    35     17     33   1
    36     19     34   1
    37     21     35   1
    38     21     36   1
    39     21     37   1
    40     38     39   2
    41     39     40   1
    42     40     41   2
    43     41     42   1
    44     42     43   2
    45     43     38   1
    46     44     45   2
    47     44     46   1
    48     41     44   1
    49     39     47   1
    50     40     48   1
    51     42     49   1
    52     43     50   1
    53     18     38   1
