# Produced with molli package
@<TRIPOS>MOLECULE
A_4_O
47 50 0 0 0
SMALL
USER_CHARGES

@<TRIPOS>ATOM
     1 C      -5.096998     4.269467     1.626726 C          1 UNL1 0.000
     2 C      -5.726583     3.134957     1.124104 C          1 UNL1 0.000
     3 C      -5.091955     1.888125     1.189942 C          1 UNL1 0.000
     4 C      -3.827097     1.739536     1.786302 C          1 UNL1 0.000
     5 C      -3.203761     2.911602     2.262481 C          1 UNL1 0.000
     6 C      -3.829767     4.160068     2.186647 C          1 UNL1 0.000
     7 N      -3.166101     0.453403     1.879829 N          1 UNL1 0.000
     8 C      -3.870685    -0.807822     1.961478 C          1 UNL1 0.000
     9 C      -5.140121    -0.912460     2.558799 C          1 UNL1 0.000
    10 C      -5.826254    -2.131900     2.609687 C          1 UNL1 0.000
    11 C      -5.244337    -3.284019     2.090729 C          1 UNL1 0.000
    12 C      -3.973988    -3.218942     1.529559 C          1 UNL1 0.000
    13 C      -3.295724    -1.996639     1.468875 C          1 UNL1 0.000
    14 C      -1.727270     0.434680     1.859151 C          1 UNL1 0.000
    15 C      -1.002210     0.374811     3.057390 C          1 UNL1 0.000
    16 C       0.387671     0.431121     3.018935 C          1 UNL1 0.000
    17 C       1.066624     0.538975     1.806569 C          1 UNL1 0.000
    18 C       0.363180     0.556819     0.592426 C          1 UNL1 0.000
    19 C      -1.039455     0.516407     0.636358 C          1 UNL1 0.000
    20 O       1.124529     0.469149     4.171238 O          1 UNL1 0.000
    21 C       1.222891    -0.833490     4.745200 C          1 UNL1 0.000
    22 H      -5.587657     5.237549     1.573770 H          1 UNL1 0.000
    23 H      -6.711324     3.217136     0.671493 H          1 UNL1 0.000
    24 H      -5.598038     1.034027     0.747698 H          1 UNL1 0.000
    25 H      -2.218183     2.871754     2.718317 H          1 UNL1 0.000
    26 H      -3.322655     5.041893     2.569474 H          1 UNL1 0.000
    27 H      -5.611179    -0.042548     3.009045 H          1 UNL1 0.000
    28 H      -6.814091    -2.178286     3.060604 H          1 UNL1 0.000
    29 H      -5.775497    -4.231211     2.129697 H          1 UNL1 0.000
    30 H      -3.506075    -4.115384     1.130833 H          1 UNL1 0.000
    31 H      -2.311777    -1.989124     1.006582 H          1 UNL1 0.000
    32 H      -1.526720     0.329506     4.006545 H          1 UNL1 0.000
    33 H       2.153143     0.582691     1.811458 H          1 UNL1 0.000
    34 H      -1.607464     0.541319    -0.292619 H          1 UNL1 0.000
    35 H       2.052398    -0.819534     5.458854 H          1 UNL1 0.000
    36 H       1.441158    -1.599268     3.991682 H          1 UNL1 0.000
    37 H       0.306678    -1.081889     5.289768 H          1 UNL1 0.000
    38 C       1.072812     0.601077    -0.686860 C          1 UNL1 0.000
    39 N       0.871151    -0.463805    -1.504502 N          1 UNL1 0.000
    40 C       1.540964    -0.482257    -2.675903 C          1 UNL1 0.000
    41 C       2.401007     0.520471    -3.090244 C          1 UNL1 0.000
    42 C       2.586551     1.612213    -2.249461 C          1 UNL1 0.000
    43 C       1.918712     1.653356    -1.029851 C          1 UNL1 0.000
    44 H       1.364388    -1.358217    -3.294682 H          1 UNL1 0.000
    45 H       2.912040     0.453333    -4.042902 H          1 UNL1 0.000
    46 H       3.247483     2.423374    -2.540514 H          1 UNL1 0.000
    47 H       2.051020     2.497933    -0.359845 H          1 UNL1 0.000
@<TRIPOS>BOND
     1      1      2   2
     2      2      3   1
     3      3      4   2
     4      4      5   1
     5      5      6   2
     6      6      1   1
     7      4      7   1
     8      7      8   1
     9      8      9   2
    10      9     10   1
    11     10     11   2
    12     11     12   1
    13     12     13   2
    14     13      8   1
    15     14     15   2
    16     15     16   1
    17     16     17   2
    18     17     18   1
    19     18     19   2
    20     19     14   1
    21     20     21   1
    22     16     20   1
    23      7     14   1
    24      1     22   1
    25      2     23   1
    26      3     24   1
    27      5     25   1
    28      6     26   1
    29      9     27   1
    30     10     28   1
    31     11     29   1
    32     12     30   1
    33     13     31   1
    34     15     32   1
    35     17     33   1
    36     19     34   1
    37     21     35   1
    38     21     36   1
    39     21     37   1
    40     38     39   2
    41     39     40   1
    42     40     41   2
    43     41     42   1
    44     42     43   2
    45     43     38   1
    46     40     44   1
    47     41     45   1
    48     42     46   1
    49     43     47   1
    50     18     38   1
