# Produced with molli package
@<TRIPOS>MOLECULE
A_4_R
49 52 0 0 0
SMALL
USER_CHARGES

@<TRIPOS>ATOM
     1 C      -5.149021     4.288541     1.525045 C          1 UNL1 0.000
     2 C      -5.727696     3.156842     0.958328 C          1 UNL1 0.000
     3 C      -5.072465     1.920954     1.024876 C          1 UNL1 0.000
     4 C      -3.838256     1.781251     1.683664 C          1 UNL1 0.000
     5 C      -3.264912     2.950074     2.225386 C          1 UNL1 0.000
     6 C      -3.911865     4.187706     2.150389 C          1 UNL1 0.000
     7 N      -3.156258     0.506947     1.775737 N          1 UNL1 0.000
     8 C      -3.839056    -0.768005     1.842095 C          1 UNL1 0.000
     9 C      -5.135933    -0.891541     2.373265 C          1 UNL1 0.000
    10 C      -5.797540    -2.125216     2.410701 C          1 UNL1 0.000
    11 C      -5.164270    -3.273297     1.946213 C          1 UNL1 0.000
    12 C      -3.867703    -3.189697     1.452312 C          1 UNL1 0.000
    13 C      -3.214248    -1.953360     1.403326 C          1 UNL1 0.000
    14 C      -1.717591     0.517386     1.764876 C          1 UNL1 0.000
    15 C      -0.999200     0.461130     2.966437 C          1 UNL1 0.000
    16 C       0.389346     0.527434     2.935970 C          1 UNL1 0.000
    17 C       1.075043     0.643329     1.727626 C          1 UNL1 0.000
    18 C       0.378704     0.659754     0.509474 C          1 UNL1 0.000
    19 C      -1.023680     0.608730     0.544970 C          1 UNL1 0.000
    20 O       1.110043     0.564551     4.097939 O          1 UNL1 0.000
    21 C       1.326915    -0.758482     4.587790 C          1 UNL1 0.000
    22 H      -5.656386     5.248115     1.472550 H          1 UNL1 0.000
    23 H      -6.688615     3.233291     0.456143 H          1 UNL1 0.000
    24 H      -5.536184     1.068410     0.535383 H          1 UNL1 0.000
    25 H      -2.306000     2.914124     2.735023 H          1 UNL1 0.000
    26 H      -3.445778     5.067791     2.585918 H          1 UNL1 0.000
    27 H      -5.650586    -0.026497     2.783161 H          1 UNL1 0.000
    28 H      -6.806863    -2.185709     2.809501 H          1 UNL1 0.000
    29 H      -5.676092    -4.231433     1.976011 H          1 UNL1 0.000
    30 H      -3.359550    -4.082829     1.097834 H          1 UNL1 0.000
    31 H      -2.206979    -1.934643     0.995251 H          1 UNL1 0.000
    32 H      -1.527230     0.403289     3.913432 H          1 UNL1 0.000
    33 H       2.161188     0.693469     1.742436 H          1 UNL1 0.000
    34 H      -1.589287     0.627491    -0.385418 H          1 UNL1 0.000
    35 H       2.116467    -0.707699     5.343715 H          1 UNL1 0.000
    36 H       1.662444    -1.439293     3.796765 H          1 UNL1 0.000
    37 H       0.419808    -1.143532     5.064167 H          1 UNL1 0.000
    38 C       1.099576     0.701736    -0.764710 C          1 UNL1 0.000
    39 N       0.889580    -0.356452    -1.590922 N          1 UNL1 0.000
    40 C       1.589562    -0.400645    -2.752081 C          1 UNL1 0.000
    41 C       2.489244     0.582481    -3.128083 C          1 UNL1 0.000
    42 C       2.685907     1.678768    -2.288031 C          1 UNL1 0.000
    43 C       1.980011     1.735570    -1.086135 C          1 UNL1 0.000
    44 N       3.222891     0.453839    -4.376749 N          1 UNL1 0.000
    45 O       4.177380     1.221338    -4.562039 O          1 UNL1 0.000
    46 O       2.852153    -0.416705    -5.176185 O          1 UNL1 0.000
    47 H       1.395293    -1.280249    -3.361069 H          1 UNL1 0.000
    48 H       3.375637     2.478563    -2.546125 H          1 UNL1 0.000
    49 H       2.116843     2.575044    -0.410129 H          1 UNL1 0.000
@<TRIPOS>BOND
     1      1      2   2
     2      2      3   1
     3      3      4   2
     4      4      5   1
     5      5      6   2
     6      6      1   1
     7      4      7   1
     8      7      8   1
     9      8      9   2
    10      9     10   1
    11     10     11   2
    12     11     12   1
    13     12     13   2
    14     13      8   1
    15     14     15   2
    16     15     16   1
    17     16     17   2
    18     17     18   1
    19     18     19   2
    20     19     14   1
    21     20     21   1
    22     16     20   1
    23      7     14   1
    24      1     22   1
    25      2     23   1
    26      3     24   1
    27      5     25   1
    28      6     26   1
    29      9     27   1
    30     10     28   1
    31     11     29   1
    32     12     30   1
    33     13     31   1
    34     15     32   1
    35     17     33   1
    36     19     34   1
    37     21     35   1
    38     21     36   1
    39     21     37   1
    40     38     39   2
    41     39     40   1
    42     40     41   2
    43     41     42   1
    44     42     43   2
    45     43     38   1
    46     44     45   2
    47     44     46   1
    48     41     44   1
    49     40     47   1
    50     42     48   1
    51     43     49   1
    52     18     38   1
