# Produced with molli package
@<TRIPOS>MOLECULE
A_4_M
49 52 0 0 0
SMALL
USER_CHARGES

@<TRIPOS>ATOM
     1 C      -5.137983     4.393961     1.719220 C          1 UNL1 0.000
     2 C      -5.802839     3.280210     1.218265 C          1 UNL1 0.000
     3 C      -5.163627     2.032895     1.178805 C          1 UNL1 0.000
     4 C      -3.867334     1.850934     1.691936 C          1 UNL1 0.000
     5 C      -3.204527     3.011987     2.146839 C          1 UNL1 0.000
     6 C      -3.828552     4.264644     2.162386 C          1 UNL1 0.000
     7 N      -3.213133     0.554226     1.732997 N          1 UNL1 0.000
     8 C      -3.905940    -0.721593     1.802011 C          1 UNL1 0.000
     9 C      -5.225676    -0.848385     2.270801 C          1 UNL1 0.000
    10 C      -5.890710    -2.082695     2.280464 C          1 UNL1 0.000
    11 C      -5.232300    -3.237528     1.874306 C          1 UNL1 0.000
    12 C      -3.906931    -3.159576     1.467902 C          1 UNL1 0.000
    13 C      -3.257004    -1.920022     1.430349 C          1 UNL1 0.000
    14 C      -1.770635     0.535553     1.733891 C          1 UNL1 0.000
    15 C      -1.063840     0.493033     2.945709 C          1 UNL1 0.000
    16 C       0.327637     0.507620     2.928524 C          1 UNL1 0.000
    17 C       1.023685     0.544622     1.721963 C          1 UNL1 0.000
    18 C       0.337563     0.545838     0.500005 C          1 UNL1 0.000
    19 C      -1.064644     0.566370     0.517103 C          1 UNL1 0.000
    20 O       1.066227     0.566340     4.077735 O          1 UNL1 0.000
    21 C       0.965550    -0.644937     4.823113 C          1 UNL1 0.000
    22 H      -5.632352     5.361102     1.751410 H          1 UNL1 0.000
    23 H      -6.821291     3.378289     0.850969 H          1 UNL1 0.000
    24 H      -5.703686     1.207248     0.724302 H          1 UNL1 0.000
    25 H      -2.184514     2.965703     2.517993 H          1 UNL1 0.000
    26 H      -3.287098     5.132388     2.530471 H          1 UNL1 0.000
    27 H      -5.766867     0.009631     2.658043 H          1 UNL1 0.000
    28 H      -6.923484    -2.137474     2.615565 H          1 UNL1 0.000
    29 H      -5.745216    -4.195426     1.887348 H          1 UNL1 0.000
    30 H      -3.372741    -4.059067     1.172883 H          1 UNL1 0.000
    31 H      -2.224782    -1.915082     1.091801 H          1 UNL1 0.000
    32 H      -1.606561     0.494114     3.886133 H          1 UNL1 0.000
    33 H       2.111253     0.564618     1.739092 H          1 UNL1 0.000
    34 H      -1.622235     0.582854    -0.417508 H          1 UNL1 0.000
    35 H       1.851986    -0.714163     5.461174 H          1 UNL1 0.000
    36 H       0.948998    -1.529674     4.175904 H          1 UNL1 0.000
    37 H       0.080713    -0.622907     5.466025 H          1 UNL1 0.000
    38 C       1.082726     0.504763    -0.759026 C          1 UNL1 0.000
    39 C       1.310382     1.671456    -1.501347 C          1 UNL1 0.000
    40 C       2.055263     1.629521    -2.684486 C          1 UNL1 0.000
    41 C       2.578805     0.416637    -3.142605 C          1 UNL1 0.000
    42 C       2.352735    -0.754049    -2.414134 C          1 UNL1 0.000
    43 C       1.610815    -0.708020    -1.230446 C          1 UNL1 0.000
    44 C       3.348871     0.373430    -4.352210 C          1 UNL1 0.000
    45 N       3.972842     0.335778    -5.328231 N          1 UNL1 0.000
    46 H       0.917063     2.624409    -1.151222 H          1 UNL1 0.000
    47 H       2.226435     2.550365    -3.238802 H          1 UNL1 0.000
    48 H       2.753545    -1.706378    -2.756427 H          1 UNL1 0.000
    49 H       1.447527    -1.627199    -0.669770 H          1 UNL1 0.000
@<TRIPOS>BOND
     1      1      2   2
     2      2      3   1
     3      3      4   2
     4      4      5   1
     5      5      6   2
     6      6      1   1
     7      4      7   1
     8      7      8   1
     9      8      9   2
    10      9     10   1
    11     10     11   2
    12     11     12   1
    13     12     13   2
    14     13      8   1
    15     14     15   2
    16     15     16   1
    17     16     17   2
    18     17     18   1
    19     18     19   2
    20     19     14   1
    21     20     21   1
    22     16     20   1
    23      7     14   1
    24      1     22   1
    25      2     23   1
    26      3     24   1
    27      5     25   1
    28      6     26   1
    29      9     27   1
    30     10     28   1
    31     11     29   1
    32     12     30   1
    33     13     31   1
    34     15     32   1
    35     17     33   1
    36     19     34   1
    37     21     35   1
    38     21     36   1
    39     21     37   1
    40     38     39   2
    41     39     40   1
    42     40     41   2
    43     41     42   1
    44     42     43   2
    45     43     38   1
    46     44     45   3
    47     41     44   1
    48     39     46   1
    49     40     47   1
    50     42     48   1
    51     43     49   1
    52     18     38   1
