# Produced with molli package
@<TRIPOS>MOLECULE
A_4_S
53 56 0 0 0
SMALL
USER_CHARGES

@<TRIPOS>ATOM
     1 C      -5.121694     4.325465     1.527442 C          1 UNL1 0.000
     2 C      -5.768060     3.178889     1.076724 C          1 UNL1 0.000
     3 C      -5.118677     1.938400     1.121505 C          1 UNL1 0.000
     4 C      -3.822966     1.806393     1.651445 C          1 UNL1 0.000
     5 C      -3.183587     2.991636     2.072281 C          1 UNL1 0.000
     6 C      -3.823104     4.234400     2.013200 C          1 UNL1 0.000
     7 N      -3.149570     0.525900     1.737373 N          1 UNL1 0.000
     8 C      -3.834010    -0.743697     1.871440 C          1 UNL1 0.000
     9 C      -5.093457    -0.856049     2.486414 C          1 UNL1 0.000
    10 C      -5.752768    -2.087971     2.583751 C          1 UNL1 0.000
    11 C      -5.151086    -3.245056     2.099427 C          1 UNL1 0.000
    12 C      -3.887537    -3.172677     1.525367 C          1 UNL1 0.000
    13 C      -3.238843    -1.938171     1.414365 C          1 UNL1 0.000
    14 C      -1.710161     0.517368     1.714113 C          1 UNL1 0.000
    15 C      -0.986461     0.430651     2.911713 C          1 UNL1 0.000
    16 C       0.404309     0.459970     2.877948 C          1 UNL1 0.000
    17 C       1.083261     0.568781     1.665559 C          1 UNL1 0.000
    18 C       0.379494     0.614849     0.453288 C          1 UNL1 0.000
    19 C      -1.022555     0.609172     0.491238 C          1 UNL1 0.000
    20 O       1.151119     0.463580     4.024278 O          1 UNL1 0.000
    21 C       1.072821    -0.795142     4.691286 C          1 UNL1 0.000
    22 H      -5.624136     5.288343     1.491424 H          1 UNL1 0.000
    23 H      -6.778685     3.246426     0.682294 H          1 UNL1 0.000
    24 H      -5.642707     1.075967     0.718398 H          1 UNL1 0.000
    25 H      -2.173323     2.968149     2.472240 H          1 UNL1 0.000
    26 H      -3.302336     5.125987     2.352887 H          1 UNL1 0.000
    27 H      -5.579182     0.015299     2.917419 H          1 UNL1 0.000
    28 H      -6.735480    -2.140385     3.045387 H          1 UNL1 0.000
    29 H      -5.661276    -4.201479     2.176762 H          1 UNL1 0.000
    30 H      -3.402752    -4.073103     1.156959 H          1 UNL1 0.000
    31 H      -2.258769    -1.926631     0.945339 H          1 UNL1 0.000
    32 H      -1.516506     0.384250     3.858169 H          1 UNL1 0.000
    33 H       2.170722     0.594294     1.668615 H          1 UNL1 0.000
    34 H      -1.594020     0.663887    -0.433557 H          1 UNL1 0.000
    35 H       1.820727    -0.794589     5.489977 H          1 UNL1 0.000
    36 H       1.306966    -1.621326     4.010288 H          1 UNL1 0.000
    37 H       0.089245    -0.940137     5.148913 H          1 UNL1 0.000
    38 C       1.103739     0.636198    -0.819295 C          1 UNL1 0.000
    39 C       1.168893    -0.511601    -1.619402 C          1 UNL1 0.000
    40 C       1.903787    -0.512138    -2.809048 C          1 UNL1 0.000
    41 C       2.588917     0.636835    -3.230568 C          1 UNL1 0.000
    42 C       2.515880     1.789096    -2.441380 C          1 UNL1 0.000
    43 C       1.780561     1.785371    -1.247654 C          1 UNL1 0.000
    44 C       3.368518     0.548279    -4.506060 C          1 UNL1 0.000
    45 C       4.177755     1.716520    -5.010671 C          1 UNL1 0.000
    46 O       3.361323    -0.505378    -5.141424 O          1 UNL1 0.000
    47 H       0.661683    -1.424158    -1.311179 H          1 UNL1 0.000
    48 H       1.944919    -1.425403    -3.401135 H          1 UNL1 0.000
    49 H       3.017660     2.711227    -2.710859 H          1 UNL1 0.000
    50 H       1.741299     2.691960    -0.645422 H          1 UNL1 0.000
    51 H       5.238538     1.453884    -4.966203 H          1 UNL1 0.000
    52 H       4.029082     2.639510    -4.455429 H          1 UNL1 0.000
    53 H       3.893120     1.912133    -6.048933 H          1 UNL1 0.000
@<TRIPOS>BOND
     1      1      2   2
     2      2      3   1
     3      3      4   2
     4      4      5   1
     5      5      6   2
     6      6      1   1
     7      4      7   1
     8      7      8   1
     9      8      9   2
    10      9     10   1
    11     10     11   2
    12     11     12   1
    13     12     13   2
    14     13      8   1
    15     14     15   2
    16     15     16   1
    17     16     17   2
    18     17     18   1
    19     18     19   2
    20     19     14   1
    21     20     21   1
    22     16     20   1
    23      7     14   1
    24      1     22   1
    25      2     23   1
    26      3     24   1
    27      5     25   1
    28      6     26   1
    29      9     27   1
    30     10     28   1
    31     11     29   1
    32     12     30   1
    33     13     31   1
    34     15     32   1
    35     17     33   1
    36     19     34   1
    37     21     35   1
    38     21     36   1
    39     21     37   1
    40     38     39   2
    41     39     40   1
    42     40     41   2
    43     41     42   1
    44     42     43   2
    45     43     38   1
    46     41     44   1
    47     44     45   1
    48     44     46   2
    49     39     47   1
    50     40     48   1
    51     42     49   1
    52     43     50   1
    53     45     51   1
    54     45     52   1
    55     45     53   1
    56     18     38   1
