# Produced with molli package
@<TRIPOS>MOLECULE
A_5_P
54 58 0 0 0
SMALL
USER_CHARGES

@<TRIPOS>ATOM
     1 C      -7.351408     4.325244     3.438707 C          1 UNL1 0.000
     2 C      -7.934644     3.162860     3.933964 C          1 UNL1 0.000
     3 C      -7.282760     1.932684     3.791555 C          1 UNL1 0.000
     4 C      -6.044344     1.832861     3.132745 C          1 UNL1 0.000
     5 C      -5.468110     3.028449     2.659071 C          1 UNL1 0.000
     6 C      -6.114137     4.259828     2.807319 C          1 UNL1 0.000
     7 N      -5.363999     0.566111     2.972474 N          1 UNL1 0.000
     8 C      -6.057877    -0.698604     2.882144 C          1 UNL1 0.000
     9 C      -7.320108    -0.804980     2.270641 C          1 UNL1 0.000
    10 C      -8.003624    -2.025016     2.218753 C          1 UNL1 0.000
    11 C      -7.428493    -3.171864     2.757779 C          1 UNL1 0.000
    12 C      -6.165215    -3.102471     3.335406 C          1 UNL1 0.000
    13 C      -5.486002    -1.881030     3.390706 C          1 UNL1 0.000
    14 C      -3.926691     0.564245     2.973986 C          1 UNL1 0.000
    15 C      -3.223571     0.701689     4.176463 C          1 UNL1 0.000
    16 C      -1.828166     0.701600     4.180012 C          1 UNL1 0.000
    17 C      -1.111246     0.605974     2.976961 C          1 UNL1 0.000
    18 C      -1.811325     0.494684     1.754930 C          1 UNL1 0.000
    19 C      -3.215879     0.448530     1.769417 C          1 UNL1 0.000
    20 C       0.290750     0.630757     2.965438 C          1 UNL1 0.000
    21 C       0.994177     0.576319     1.759384 C          1 UNL1 0.000
    22 C       0.315526     0.496592     0.537905 C          1 UNL1 0.000
    23 C      -1.087485     0.446318     0.549537 C          1 UNL1 0.000
    24 H      -7.856033     5.281046     3.551116 H          1 UNL1 0.000
    25 H      -8.895614     3.209964     4.439451 H          1 UNL1 0.000
    26 H      -7.750561     1.051656     4.223333 H          1 UNL1 0.000
    27 H      -4.507626     3.016687     2.150267 H          1 UNL1 0.000
    28 H      -5.646852     5.164011     2.425984 H          1 UNL1 0.000
    29 H      -7.784290     0.065709     1.814029 H          1 UNL1 0.000
    30 H      -8.984484    -2.076337     1.753456 H          1 UNL1 0.000
    31 H      -7.959781    -4.119166     2.721335 H          1 UNL1 0.000
    32 H      -5.704714    -3.995543     3.749869 H          1 UNL1 0.000
    33 H      -4.507007    -1.865408     3.862186 H          1 UNL1 0.000
    34 H      -3.767934     0.792268     5.113144 H          1 UNL1 0.000
    35 H      -1.305844     0.790379     5.129280 H          1 UNL1 0.000
    36 H      -3.772348     0.355068     0.839769 H          1 UNL1 0.000
    37 H       0.848941     0.702332     3.895773 H          1 UNL1 0.000
    38 H       2.081898     0.607357     1.777469 H          1 UNL1 0.000
    39 H      -1.620680     0.376146    -0.397218 H          1 UNL1 0.000
    40 C       1.057555     0.467670    -0.724947 C          1 UNL1 0.000
    41 C       1.241973     1.639453    -1.477603 C          1 UNL1 0.000
    42 C       1.960869     1.613400    -2.676388 C          1 UNL1 0.000
    43 C       2.506493     0.412717    -3.123864 C          1 UNL1 0.000
    44 C       2.309769    -0.764047    -2.407459 C          1 UNL1 0.000
    45 C       1.598254    -0.734077    -1.206571 C          1 UNL1 0.000
    46 O       3.189545     0.334352    -4.306201 O          1 UNL1 0.000
    47 C       4.459083     0.978190    -4.201602 C          1 UNL1 0.000
    48 H       0.821040     2.581040    -1.130154 H          1 UNL1 0.000
    49 H       2.078263     2.523365    -3.256882 H          1 UNL1 0.000
    50 H       2.714380    -1.700762    -2.779047 H          1 UNL1 0.000
    51 H       1.459344    -1.656929    -0.647520 H          1 UNL1 0.000
    52 H       5.068128     0.653968    -5.050967 H          1 UNL1 0.000
    53 H       4.985391     0.693092    -3.282995 H          1 UNL1 0.000
    54 H       4.348716     2.065760    -4.257897 H          1 UNL1 0.000
@<TRIPOS>BOND
     1      1      2   2
     2      2      3   1
     3      3      4   2
     4      4      5   1
     5      5      6   2
     6      6      1   1
     7      4      7   1
     8      7      8   1
     9      8      9   2
    10      9     10   1
    11     10     11   2
    12     11     12   1
    13     12     13   2
    14     13      8   1
    15     14     15   2
    16     15     16   1
    17     16     17   2
    18     17     18   1
    19     18     19   2
    20     19     14   1
    21     17     20   1
    22     20     21   2
    23     21     22   1
    24     22     23   2
    25     23     18   1
    26      7     14   1
    27      1     24   1
    28      2     25   1
    29      3     26   1
    30      5     27   1
    31      6     28   1
    32      9     29   1
    33     10     30   1
    34     11     31   1
    35     12     32   1
    36     13     33   1
    37     15     34   1
    38     16     35   1
    39     19     36   1
    40     20     37   1
    41     21     38   1
    42     23     39   1
    43     40     41   2
    44     41     42   1
    45     42     43   2
    46     43     44   1
    47     44     45   2
    48     45     40   1
    49     46     47   1
    50     43     46   1
    51     41     48   1
    52     42     49   1
    53     44     50   1
    54     45     51   1
    55     47     52   1
    56     47     53   1
    57     47     54   1
    58     22     40   1
