# Produced with molli package
@<TRIPOS>MOLECULE
A_5_S
55 59 0 0 0
SMALL
USER_CHARGES

@<TRIPOS>ATOM
     1 C      -7.425392     4.282329     3.383380 C          1 UNL1 0.000
     2 C      -8.043162     3.115072     3.820531 C          1 UNL1 0.000
     3 C      -7.381042     1.884544     3.719121 C          1 UNL1 0.000
     4 C      -6.102671     1.783126     3.142878 C          1 UNL1 0.000
     5 C      -5.493315     2.988460     2.732764 C          1 UNL1 0.000
     6 C      -6.143330     4.221409     2.851665 C          1 UNL1 0.000
     7 N      -5.409625     0.516842     3.003362 N          1 UNL1 0.000
     8 C      -6.071515    -0.769457     2.931062 C          1 UNL1 0.000
     9 C      -7.358423    -0.920617     2.385451 C          1 UNL1 0.000
    10 C      -8.002389    -2.164351     2.363465 C          1 UNL1 0.000
    11 C      -7.357452    -3.296230     2.851806 C          1 UNL1 0.000
    12 C      -6.064910    -3.187577     3.350504 C          1 UNL1 0.000
    13 C      -5.431177    -1.940850     3.386849 C          1 UNL1 0.000
    14 C      -3.970590     0.539003     2.986448 C          1 UNL1 0.000
    15 C      -3.256578     0.681271     4.182374 C          1 UNL1 0.000
    16 C      -1.862530     0.710685     4.167943 C          1 UNL1 0.000
    17 C      -1.158896     0.635743     2.956340 C          1 UNL1 0.000
    18 C      -1.869518     0.514526     1.739466 C          1 UNL1 0.000
    19 C      -3.272571     0.443925     1.771742 C          1 UNL1 0.000
    20 C       0.240519     0.690991     2.931329 C          1 UNL1 0.000
    21 C       0.933082     0.651038     1.719634 C          1 UNL1 0.000
    22 C       0.246111     0.555192     0.503026 C          1 UNL1 0.000
    23 C      -1.155456     0.480936     0.526677 C          1 UNL1 0.000
    24 H      -7.936584     5.237609     3.466385 H          1 UNL1 0.000
    25 H      -9.040535     3.158360     4.250458 H          1 UNL1 0.000
    26 H      -7.881530     1.007140     4.118990 H          1 UNL1 0.000
    27 H      -4.496074     2.988731     2.300216 H          1 UNL1 0.000
    28 H      -5.643001     5.129072     2.524148 H          1 UNL1 0.000
    29 H      -7.879576    -0.069748     1.954835 H          1 UNL1 0.000
    30 H      -9.007821    -2.245735     1.958589 H          1 UNL1 0.000
    31 H      -7.856160    -4.261580     2.834766 H          1 UNL1 0.000
    32 H      -5.545126    -4.068403     3.718527 H          1 UNL1 0.000
    33 H      -4.426075    -1.901017     3.798335 H          1 UNL1 0.000
    34 H      -3.791704     0.754969     5.125765 H          1 UNL1 0.000
    35 H      -1.330202     0.805711     5.111532 H          1 UNL1 0.000
    36 H      -3.840146     0.346659     0.848761 H          1 UNL1 0.000
    37 H       0.806343     0.776076     3.856344 H          1 UNL1 0.000
    38 H       2.019893     0.707919     1.728720 H          1 UNL1 0.000
    39 H      -1.697485     0.403393    -0.414810 H          1 UNL1 0.000
    40 C       0.988476     0.538995    -0.759730 C          1 UNL1 0.000
    41 C       1.153747     1.708694    -1.511413 C          1 UNL1 0.000
    42 C       1.905461     1.697784    -2.691599 C          1 UNL1 0.000
    43 C       2.508216     0.516384    -3.148601 C          1 UNL1 0.000
    44 C       2.343311    -0.654682    -2.402575 C          1 UNL1 0.000
    45 C       1.587070    -0.640799    -1.222556 C          1 UNL1 0.000
    46 C       3.310547     0.586413    -4.410718 C          1 UNL1 0.000
    47 C       3.942079    -0.651149    -4.997697 C          1 UNL1 0.000
    48 O       3.471259     1.674520    -4.961545 O          1 UNL1 0.000
    49 H       0.710483     2.643993    -1.173867 H          1 UNL1 0.000
    50 H       2.025177     2.626186    -3.248529 H          1 UNL1 0.000
    51 H       2.793818    -1.596611    -2.694849 H          1 UNL1 0.000
    52 H       1.472934    -1.562597    -0.653900 H          1 UNL1 0.000
    53 H       3.751009    -0.658288    -6.075468 H          1 UNL1 0.000
    54 H       3.539178    -1.581846    -4.602462 H          1 UNL1 0.000
    55 H       5.020347    -0.619820    -4.819577 H          1 UNL1 0.000
@<TRIPOS>BOND
     1      1      2   2
     2      2      3   1
     3      3      4   2
     4      4      5   1
     5      5      6   2
     6      6      1   1
     7      4      7   1
     8      7      8   1
     9      8      9   2
    10      9     10   1
    11     10     11   2
    12     11     12   1
    13     12     13   2
    14     13      8   1
    15     14     15   2
    16     15     16   1
    17     16     17   2
    18     17     18   1
    19     18     19   2
    20     19     14   1
    21     17     20   1
    22     20     21   2
    23     21     22   1
    24     22     23   2
    25     23     18   1
    26      7     14   1
    27      1     24   1
    28      2     25   1
    29      3     26   1
    30      5     27   1
    31      6     28   1
    32      9     29   1
    33     10     30   1
    34     11     31   1
    35     12     32   1
    36     13     33   1
    37     15     34   1
    38     16     35   1
    39     19     36   1
    40     20     37   1
    41     21     38   1
    42     23     39   1
    43     40     41   2
    44     41     42   1
    45     42     43   2
    46     43     44   1
    47     44     45   2
    48     45     40   1
    49     43     46   1
    50     46     47   1
    51     46     48   2
    52     41     49   1
    53     42     50   1
    54     44     51   1
    55     45     52   1
    56     47     53   1
    57     47     54   1
    58     47     55   1
    59     22     40   1
