# Produced with molli package
@<TRIPOS>MOLECULE
A_5_M
51 55 0 0 0
SMALL
USER_CHARGES

@<TRIPOS>ATOM
     1 C      -7.449039     4.271904     3.036544 C          1 UNL1 0.000
     2 C      -8.079462     3.130910     2.551465 C          1 UNL1 0.000
     3 C      -7.396695     1.907970     2.515502 C          1 UNL1 0.000
     4 C      -6.083527     1.783148     3.002642 C          1 UNL1 0.000
     5 C      -5.460153     2.966655     3.452271 C          1 UNL1 0.000
     6 C      -6.132344     4.193625     3.472211 C          1 UNL1 0.000
     7 N      -5.380241     0.515039     3.017367 N          1 UNL1 0.000
     8 C      -6.031068    -0.778310     3.106468 C          1 UNL1 0.000
     9 C      -7.290160    -0.948631     3.708990 C          1 UNL1 0.000
    10 C      -7.917510    -2.200527     3.756406 C          1 UNL1 0.000
    11 C      -7.281309    -3.323635     3.238292 C          1 UNL1 0.000
    12 C      -6.014143    -3.197561     2.682840 C          1 UNL1 0.000
    13 C      -5.399077    -1.942295     2.619422 C          1 UNL1 0.000
    14 C      -3.941154     0.540042     3.000420 C          1 UNL1 0.000
    15 C      -3.223832     0.478756     4.201348 C          1 UNL1 0.000
    16 C      -1.829927     0.521540     4.189255 C          1 UNL1 0.000
    17 C      -1.127657     0.581642     2.976019 C          1 UNL1 0.000
    18 C      -1.840677     0.614958     1.755222 C          1 UNL1 0.000
    19 C      -3.245300     0.619541     1.783553 C          1 UNL1 0.000
    20 C       0.272890     0.595529     2.952991 C          1 UNL1 0.000
    21 C       0.964998     0.604000     1.740217 C          1 UNL1 0.000
    22 C       0.276374     0.605496     0.520664 C          1 UNL1 0.000
    23 C      -1.127176     0.626491     0.542202 C          1 UNL1 0.000
    24 H      -7.977296     5.221075     3.064055 H          1 UNL1 0.000
    25 H      -9.104048     3.188863     2.193284 H          1 UNL1 0.000
    26 H      -7.911458     1.053562     2.084619 H          1 UNL1 0.000
    27 H      -4.435389     2.955891     3.813161 H          1 UNL1 0.000
    28 H      -5.622086     5.082582     3.834016 H          1 UNL1 0.000
    29 H      -7.802168    -0.109542     4.171751 H          1 UNL1 0.000
    30 H      -8.902012    -2.295160     4.207303 H          1 UNL1 0.000
    31 H      -7.765710    -4.295551     3.277811 H          1 UNL1 0.000
    32 H      -5.498566    -4.071669     2.293445 H          1 UNL1 0.000
    33 H      -4.412404    -1.892870     2.166961 H          1 UNL1 0.000
    34 H      -3.757292     0.418622     5.146663 H          1 UNL1 0.000
    35 H      -1.296100     0.494466     5.136399 H          1 UNL1 0.000
    36 H      -3.814808     0.655158     0.857334 H          1 UNL1 0.000
    37 H       0.840300     0.587558     3.880961 H          1 UNL1 0.000
    38 H       2.053276     0.603809     1.752236 H          1 UNL1 0.000
    39 H      -1.671532     0.627607    -0.401141 H          1 UNL1 0.000
    40 C       1.015892     0.566805    -0.744052 C          1 UNL1 0.000
    41 C       1.165138     1.719761    -1.528141 C          1 UNL1 0.000
    42 C       1.904521     1.685804    -2.715351 C          1 UNL1 0.000
    43 C       2.501041     0.493886    -3.137359 C          1 UNL1 0.000
    44 C       2.349632    -0.664436    -2.370749 C          1 UNL1 0.000
    45 C       1.613238    -0.625829    -1.182793 C          1 UNL1 0.000
    46 C       3.271412     0.460832    -4.347073 C          1 UNL1 0.000
    47 N       3.897727     0.433516    -5.322180 N          1 UNL1 0.000
    48 H       0.715827     2.658003    -1.206776 H          1 UNL1 0.000
    49 H       2.015291     2.596888    -3.300462 H          1 UNL1 0.000
    50 H       2.805078    -1.601419    -2.686091 H          1 UNL1 0.000
    51 H       1.506883    -1.535685    -0.593707 H          1 UNL1 0.000
@<TRIPOS>BOND
     1      1      2   2
     2      2      3   1
     3      3      4   2
     4      4      5   1
     5      5      6   2
     6      6      1   1
     7      4      7   1
     8      7      8   1
     9      8      9   2
    10      9     10   1
    11     10     11   2
    12     11     12   1
    13     12     13   2
    14     13      8   1
    15     14     15   2
    16     15     16   1
    17     16     17   2
    18     17     18   1
    19     18     19   2
    20     19     14   1
    21     17     20   1
    22     20     21   2
    23     21     22   1
    24     22     23   2
    25     23     18   1
    26      7     14   1
    27      1     24   1
    28      2     25   1
    29      3     26   1
    30      5     27   1
    31      6     28   1
    32      9     29   1
    33     10     30   1
    34     11     31   1
    35     12     32   1
    36     13     33   1
    37     15     34   1
    38     16     35   1
    39     19     36   1
    40     20     37   1
    41     21     38   1
    42     23     39   1
    43     40     41   2
    44     41     42   1
    45     42     43   2
    46     43     44   1
    47     44     45   2
    48     45     40   1
    49     46     47   3
    50     43     46   1
    51     41     48   1
    52     42     49   1
    53     44     50   1
    54     45     51   1
    55     22     40   1
