# Produced with molli package
@<TRIPOS>MOLECULE
A_5_T
53 57 0 0 0
SMALL
USER_CHARGES

@<TRIPOS>ATOM
     1 C      -7.402228     4.285316     3.235183 C          1 UNL1 0.000
     2 C      -8.003178     3.137437     3.743212 C          1 UNL1 0.000
     3 C      -7.337179     1.907487     3.682668 C          1 UNL1 0.000
     4 C      -6.066722     1.791706     3.091669 C          1 UNL1 0.000
     5 C      -5.473621     2.974858     2.605699 C          1 UNL1 0.000
     6 C      -6.132955     4.206237     2.673615 C          1 UNL1 0.000
     7 N      -5.372838     0.524727     3.009800 N          1 UNL1 0.000
     8 C      -6.045791    -0.751555     2.913781 C          1 UNL1 0.000
     9 C      -7.289676    -0.889498     2.273086 C          1 UNL1 0.000
    10 C      -7.939693    -2.127327     2.203709 C          1 UNL1 0.000
    11 C      -7.347951    -3.260750     2.753376 C          1 UNL1 0.000
    12 C      -6.102830    -3.159648     3.363795 C          1 UNL1 0.000
    13 C      -5.459127    -1.920464     3.439126 C          1 UNL1 0.000
    14 C      -3.935618     0.535673     3.028512 C          1 UNL1 0.000
    15 C      -3.246923     0.726229     4.232682 C          1 UNL1 0.000
    16 C      -1.851886     0.732647     4.249873 C          1 UNL1 0.000
    17 C      -1.120871     0.592194     3.060467 C          1 UNL1 0.000
    18 C      -1.809127     0.428879     1.835008 C          1 UNL1 0.000
    19 C      -3.211160     0.374480     1.838022 C          1 UNL1 0.000
    20 C       0.279978     0.626165     3.058470 C          1 UNL1 0.000
    21 C       0.994258     0.539049     1.861120 C          1 UNL1 0.000
    22 C       0.326062     0.415509     0.636588 C          1 UNL1 0.000
    23 C      -1.075127     0.345440     0.639788 C          1 UNL1 0.000
    24 H      -7.917885     5.240614     3.283823 H          1 UNL1 0.000
    25 H      -8.989949     3.196254     4.194938 H          1 UNL1 0.000
    26 H      -7.821606     1.040071     4.123410 H          1 UNL1 0.000
    27 H      -4.487499     2.953819     2.148766 H          1 UNL1 0.000
    28 H      -5.650640     5.098970     2.283999 H          1 UNL1 0.000
    29 H      -7.764355    -0.032968     1.801340 H          1 UNL1 0.000
    30 H      -8.906582    -2.203674     1.713273 H          1 UNL1 0.000
    31 H      -7.851581    -4.222157     2.699044 H          1 UNL1 0.000
    32 H      -5.627779    -4.041344     3.786064 H          1 UNL1 0.000
    33 H      -4.492407    -1.880723     3.934435 H          1 UNL1 0.000
    34 H      -3.802217     0.852553     5.158458 H          1 UNL1 0.000
    35 H      -1.339305     0.864313     5.200413 H          1 UNL1 0.000
    36 H      -3.757943     0.240454     0.906645 H          1 UNL1 0.000
    37 H       0.830214     0.737949     3.990450 H          1 UNL1 0.000
    38 H       2.080982     0.588942     1.884814 H          1 UNL1 0.000
    39 H      -1.600024     0.242307    -0.309443 H          1 UNL1 0.000
    40 C       1.075614     0.393727    -0.621256 C          1 UNL1 0.000
    41 C       1.220506     1.563338    -1.381659 C          1 UNL1 0.000
    42 C       1.950074     1.557865    -2.573622 C          1 UNL1 0.000
    43 C       2.539774     0.377361    -3.036131 C          1 UNL1 0.000
    44 C       2.404307    -0.791522    -2.278263 C          1 UNL1 0.000
    45 C       1.676843    -0.783524    -1.084208 C          1 UNL1 0.000
    46 C       3.353638     0.370283    -4.295904 C          1 UNL1 0.000
    47 H       0.770365     2.493241    -1.039468 H          1 UNL1 0.000
    48 H       2.054539     2.483563    -3.134878 H          1 UNL1 0.000
    49 H       2.866363    -1.717885    -2.611938 H          1 UNL1 0.000
    50 H       1.581860    -1.704252    -0.512501 H          1 UNL1 0.000
    51 H       3.144126    -0.529248    -4.883955 H          1 UNL1 0.000
    52 H       4.420241     0.398890    -4.052298 H          1 UNL1 0.000
    53 H       3.117718     1.234450    -4.925834 H          1 UNL1 0.000
@<TRIPOS>BOND
     1      1      2   2
     2      2      3   1
     3      3      4   2
     4      4      5   1
     5      5      6   2
     6      6      1   1
     7      4      7   1
     8      7      8   1
     9      8      9   2
    10      9     10   1
    11     10     11   2
    12     11     12   1
    13     12     13   2
    14     13      8   1
    15     14     15   2
    16     15     16   1
    17     16     17   2
    18     17     18   1
    19     18     19   2
    20     19     14   1
    21     17     20   1
    22     20     21   2
    23     21     22   1
    24     22     23   2
    25     23     18   1
    26      7     14   1
    27      1     24   1
    28      2     25   1
    29      3     26   1
    30      5     27   1
    31      6     28   1
    32      9     29   1
    33     10     30   1
    34     11     31   1
    35     12     32   1
    36     13     33   1
    37     15     34   1
    38     16     35   1
    39     19     36   1
    40     20     37   1
    41     21     38   1
    42     23     39   1
    43     40     41   2
    44     41     42   1
    45     42     43   2
    46     43     44   1
    47     44     45   2
    48     45     40   1
    49     43     46   1
    50     41     47   1
    51     42     48   1
    52     44     49   1
    53     45     50   1
    54     46     51   1
    55     46     52   1
    56     46     53   1
    57     22     40   1
