# Produced with molli package
@<TRIPOS>MOLECULE
A_5_R
51 55 0 0 0
SMALL
USER_CHARGES

@<TRIPOS>ATOM
     1 C      -7.390051     4.287619     2.941896 C          1 UNL1 0.000
     2 C      -8.040073     3.145933     2.484675 C          1 UNL1 0.000
     3 C      -7.378780     1.910205     2.477245 C          1 UNL1 0.000
     4 C      -6.067877     1.774305     2.965994 C          1 UNL1 0.000
     5 C      -5.426357     2.957723     3.392367 C          1 UNL1 0.000
     6 C      -6.075950     4.196720     3.381800 C          1 UNL1 0.000
     7 N      -5.377836     0.499307     3.002027 N          1 UNL1 0.000
     8 C      -6.034282    -0.791945     3.078410 C          1 UNL1 0.000
     9 C      -7.303394    -0.962578     3.657653 C          1 UNL1 0.000
    10 C      -7.928845    -2.216266     3.696326 C          1 UNL1 0.000
    11 C      -7.281558    -3.340194     3.193055 C          1 UNL1 0.000
    12 C      -6.005742    -3.213430     2.659001 C          1 UNL1 0.000
    13 C      -5.393171    -1.956940     2.603231 C          1 UNL1 0.000
    14 C      -3.938432     0.513813     2.997610 C          1 UNL1 0.000
    15 C      -3.231530     0.412596     4.201993 C          1 UNL1 0.000
    16 C      -1.837197     0.435318     4.200458 C          1 UNL1 0.000
    17 C      -1.125835     0.514818     2.993556 C          1 UNL1 0.000
    18 C      -1.830363     0.591913     1.769602 C          1 UNL1 0.000
    19 C      -3.233822     0.618047     1.788026 C          1 UNL1 0.000
    20 C       0.274910     0.507261     2.978899 C          1 UNL1 0.000
    21 C       0.973925     0.530842     1.770049 C          1 UNL1 0.000
    22 C       0.291785     0.568497     0.546722 C          1 UNL1 0.000
    23 C      -1.110897     0.621880     0.561543 C          1 UNL1 0.000
    24 H      -7.900519     5.246855     2.943607 H          1 UNL1 0.000
    25 H      -9.062986     3.213933     2.123478 H          1 UNL1 0.000
    26 H      -7.908418     1.057033     2.063010 H          1 UNL1 0.000
    27 H      -4.401781     2.938156     3.754308 H          1 UNL1 0.000
    28 H      -5.549144     5.084955     3.721040 H          1 UNL1 0.000
    29 H      -7.824576    -0.123799     4.110335 H          1 UNL1 0.000
    30 H      -8.920933    -2.312275     4.130014 H          1 UNL1 0.000
    31 H      -7.764228    -4.313156     3.227622 H          1 UNL1 0.000
    32 H      -5.481105    -4.087196     2.281225 H          1 UNL1 0.000
    33 H      -4.398983    -1.906962     2.167368 H          1 UNL1 0.000
    34 H      -3.773102     0.335696     5.141434 H          1 UNL1 0.000
    35 H      -1.310578     0.376674     5.150169 H          1 UNL1 0.000
    36 H      -3.796468     0.687784     0.859534 H          1 UNL1 0.000
    37 H       0.836268     0.472355     3.909929 H          1 UNL1 0.000
    38 H       2.061928     0.518184     1.786919 H          1 UNL1 0.000
    39 H      -1.647252     0.670153    -0.385234 H          1 UNL1 0.000
    40 C       1.030851     0.521764    -0.714309 C          1 UNL1 0.000
    41 N       1.238942     1.713137    -1.328853 N          1 UNL1 0.000
    42 C       1.959777     1.708395    -2.478309 C          1 UNL1 0.000
    43 C       2.471742     0.551842    -3.043602 C          1 UNL1 0.000
    44 C       2.242571    -0.672351    -2.416425 C          1 UNL1 0.000
    45 C       1.512266    -0.684088    -1.228791 C          1 UNL1 0.000
    46 N       3.241998     0.628578    -4.272322 N          1 UNL1 0.000
    47 O       3.367582    -0.411439    -4.934162 O          1 UNL1 0.000
    48 O       3.728979     1.725032    -4.577973 O          1 UNL1 0.000
    49 H       2.103886     2.689409    -2.924272 H          1 UNL1 0.000
    50 H       2.626056    -1.603723    -2.825810 H          1 UNL1 0.000
    51 H       1.323773    -1.619486    -0.708938 H          1 UNL1 0.000
@<TRIPOS>BOND
     1      1      2   2
     2      2      3   1
     3      3      4   2
     4      4      5   1
     5      5      6   2
     6      6      1   1
     7      4      7   1
     8      7      8   1
     9      8      9   2
    10      9     10   1
    11     10     11   2
    12     11     12   1
    13     12     13   2
    14     13      8   1
    15     14     15   2
    16     15     16   1
    17     16     17   2
    18     17     18   1
    19     18     19   2
    20     19     14   1
    21     17     20   1
    22     20     21   2
    23     21     22   1
    24     22     23   2
    25     23     18   1
    26      7     14   1
    27      1     24   1
    28      2     25   1
    29      3     26   1
    30      5     27   1
    31      6     28   1
    32      9     29   1
    33     10     30   1
    34     11     31   1
    35     12     32   1
    36     13     33   1
    37     15     34   1
    38     16     35   1
    39     19     36   1
    40     20     37   1
    41     21     38   1
    42     23     39   1
    43     40     41   2
    44     41     42   1
    45     42     43   2
    46     43     44   1
    47     44     45   2
    48     45     40   1
    49     46     47   2
    50     46     48   1
    51     43     46   1
    52     42     49   1
    53     44     50   1
    54     45     51   1
    55     22     40   1
