# Produced with molli package
@<TRIPOS>MOLECULE
A_5_Q
48 52 0 0 0
SMALL
USER_CHARGES

@<TRIPOS>ATOM
     1 C      -7.418029     4.301308     2.740160 C          1 UNL1 0.000
     2 C      -8.029262     3.147508     2.258830 C          1 UNL1 0.000
     3 C      -7.364995     1.917068     2.328094 C          1 UNL1 0.000
     4 C      -6.087480     1.806100     2.904898 C          1 UNL1 0.000
     5 C      -5.482281     2.995687     3.358510 C          1 UNL1 0.000
     6 C      -6.139369     4.227762     3.280770 C          1 UNL1 0.000
     7 N      -5.404060     0.536022     3.011510 N          1 UNL1 0.000
     8 C      -6.085363    -0.731899     3.167012 C          1 UNL1 0.000
     9 C      -7.331021    -0.837718     3.809802 C          1 UNL1 0.000
    10 C      -7.977794    -2.072107     3.945895 C          1 UNL1 0.000
    11 C      -7.380692    -3.233373     3.464182 C          1 UNL1 0.000
    12 C      -6.135077    -3.162867     2.850973 C          1 UNL1 0.000
    13 C      -5.496352    -1.927358     2.705684 C          1 UNL1 0.000
    14 C      -3.966100     0.531511     3.030730 C          1 UNL1 0.000
    15 C      -3.281121     0.350112     4.238708 C          1 UNL1 0.000
    16 C      -1.887205     0.328559     4.259133 C          1 UNL1 0.000
    17 C      -1.153911     0.443886     3.069296 C          1 UNL1 0.000
    18 C      -1.835204     0.613303     1.840938 C          1 UNL1 0.000
    19 C      -3.237914     0.682190     1.840525 C          1 UNL1 0.000
    20 C       0.244599     0.377578     3.073617 C          1 UNL1 0.000
    21 C       0.964401     0.428491     1.877732 C          1 UNL1 0.000
    22 C       0.307307     0.561770     0.645538 C          1 UNL1 0.000
    23 C      -1.092626     0.682259     0.648247 C          1 UNL1 0.000
    24 H      -7.932648     5.256884     2.686422 H          1 UNL1 0.000
    25 H      -9.023288     3.201731     1.822694 H          1 UNL1 0.000
    26 H      -7.858551     1.043802     1.909437 H          1 UNL1 0.000
    27 H      -4.489018     2.979874     3.799830 H          1 UNL1 0.000
    28 H      -5.648263     5.125342     3.647606 H          1 UNL1 0.000
    29 H      -7.809670     0.040518     4.234866 H          1 UNL1 0.000
    30 H      -8.946017    -2.123869     4.437010 H          1 UNL1 0.000
    31 H      -7.880758    -4.191996     3.573399 H          1 UNL1 0.000
    32 H      -5.655432    -4.065609     2.481659 H          1 UNL1 0.000
    33 H      -4.528803    -1.912305     2.210262 H          1 UNL1 0.000
    34 H      -3.839440     0.238272     5.164647 H          1 UNL1 0.000
    35 H      -1.378713     0.200911     5.212281 H          1 UNL1 0.000
    36 H      -3.781442     0.813017     0.906799 H          1 UNL1 0.000
    37 H       0.788420     0.270523     4.010076 H          1 UNL1 0.000
    38 H       2.050500     0.367821     1.916390 H          1 UNL1 0.000
    39 H      -1.610830     0.803368    -0.303226 H          1 UNL1 0.000
    40 C       1.059108     0.547208    -0.611025 C          1 UNL1 0.000
    41 N       0.954747     1.646114    -1.400597 N          1 UNL1 0.000
    42 C       1.679534     1.621063    -2.544000 C          1 UNL1 0.000
    43 C       2.467975     0.541565    -2.905953 C          1 UNL1 0.000
    44 N       2.570639    -0.566725    -2.141302 N          1 UNL1 0.000
    45 C       1.851318    -0.536515    -0.991788 C          1 UNL1 0.000
    46 H       1.611741     2.505197    -3.167493 H          1 UNL1 0.000
    47 H       3.041398     0.540108    -3.825806 H          1 UNL1 0.000
    48 H       1.922720    -1.428199    -0.377236 H          1 UNL1 0.000
@<TRIPOS>BOND
     1      1      2   2
     2      2      3   1
     3      3      4   2
     4      4      5   1
     5      5      6   2
     6      6      1   1
     7      4      7   1
     8      7      8   1
     9      8      9   2
    10      9     10   1
    11     10     11   2
    12     11     12   1
    13     12     13   2
    14     13      8   1
    15     14     15   2
    16     15     16   1
    17     16     17   2
    18     17     18   1
    19     18     19   2
    20     19     14   1
    21     17     20   1
    22     20     21   2
    23     21     22   1
    24     22     23   2
    25     23     18   1
    26      7     14   1
    27      1     24   1
    28      2     25   1
    29      3     26   1
    30      5     27   1
    31      6     28   1
    32      9     29   1
    33     10     30   1
    34     11     31   1
    35     12     32   1
    36     13     33   1
    37     15     34   1
    38     16     35   1
    39     19     36   1
    40     20     37   1
    41     21     38   1
    42     23     39   1
    43     40     41   2
    44     41     42   1
    45     42     43   2
    46     43     44   1
    47     44     45   2
    48     45     40   1
    49     42     46   1
    50     43     47   1
    51     45     48   1
    52     22     40   1
