# Produced with molli package
@<TRIPOS>MOLECULE
A_5_L
54 59 0 0 0
SMALL
USER_CHARGES

@<TRIPOS>ATOM
     1 C      -7.290121     4.296773     3.307061 C          1 UNL1 0.000
     2 C      -7.901975     3.150934     3.806150 C          1 UNL1 0.000
     3 C      -7.260231     1.909679     3.711462 C          1 UNL1 0.000
     4 C      -6.006571     1.778598     3.089192 C          1 UNL1 0.000
     5 C      -5.402816     2.960852     2.611578 C          1 UNL1 0.000
     6 C      -6.034760     4.203916     2.718151 C          1 UNL1 0.000
     7 N      -5.331116     0.502619     2.972057 N          1 UNL1 0.000
     8 C      -6.014123    -0.772488     2.918397 C          1 UNL1 0.000
     9 C      -7.302276    -0.907108     2.371228 C          1 UNL1 0.000
    10 C      -7.964490    -2.141090     2.356932 C          1 UNL1 0.000
    11 C      -7.339626    -3.277677     2.860822 C          1 UNL1 0.000
    12 C      -6.049132    -3.183793     3.368162 C          1 UNL1 0.000
    13 C      -5.395298    -1.947526     3.393069 C          1 UNL1 0.000
    14 C      -3.892664     0.504170     2.966743 C          1 UNL1 0.000
    15 C      -3.185432     0.666378     4.164127 C          1 UNL1 0.000
    16 C      -1.790608     0.664792     4.161646 C          1 UNL1 0.000
    17 C      -1.078993     0.542678     2.958292 C          1 UNL1 0.000
    18 C      -1.784029     0.407821     1.740357 C          1 UNL1 0.000
    19 C      -3.187570     0.362975     1.761586 C          1 UNL1 0.000
    20 C       0.322115     0.565704     2.940746 C          1 UNL1 0.000
    21 C       1.020291     0.491050     1.733261 C          1 UNL1 0.000
    22 C       0.337122     0.393392     0.514920 C          1 UNL1 0.000
    23 C      -1.065387     0.339049     0.533380 C          1 UNL1 0.000
    24 H      -7.785480     5.260778     3.385206 H          1 UNL1 0.000
    25 H      -8.877864     3.220076     4.279622 H          1 UNL1 0.000
    26 H      -7.751513     1.047288     4.153788 H          1 UNL1 0.000
    27 H      -4.426447     2.931673     2.134543 H          1 UNL1 0.000
    28 H      -5.541293     5.094617     2.337995 H          1 UNL1 0.000
    29 H      -7.807694    -0.050977     1.932183 H          1 UNL1 0.000
    30 H      -8.967926    -2.211717     1.945306 H          1 UNL1 0.000
    31 H      -7.852369    -4.235704     2.849454 H          1 UNL1 0.000
    32 H      -5.545826    -4.068240     3.750129 H          1 UNL1 0.000
    33 H      -4.391764    -1.918035     3.809443 H          1 UNL1 0.000
    34 H      -3.726550     0.776851     5.100438 H          1 UNL1 0.000
    35 H      -1.263894     0.773852     5.106633 H          1 UNL1 0.000
    36 H      -3.748553     0.250276     0.836518 H          1 UNL1 0.000
    37 H       0.884556     0.656259     3.867052 H          1 UNL1 0.000
    38 H       2.107915     0.529227     1.745395 H          1 UNL1 0.000
    39 H      -1.602448     0.253672    -0.410167 H          1 UNL1 0.000
    40 C       1.076913     0.373656    -0.750751 C          1 UNL1 0.000
    41 C       1.146275     1.525413    -1.548422 C          1 UNL1 0.000
    42 C       1.868790     1.552362    -2.747376 C          1 UNL1 0.000
    43 C       2.524412     0.378606    -3.130333 C          1 UNL1 0.000
    44 C       2.477504    -0.790877    -2.372726 C          1 UNL1 0.000
    45 C       1.745177    -0.791360    -1.168742 C          1 UNL1 0.000
    46 N       3.301409     0.114057    -4.235766 N          1 UNL1 0.000
    47 C       3.742686    -1.182335    -4.204833 C          1 UNL1 0.000
    48 C       3.246686    -1.768177    -3.062603 C          1 UNL1 0.000
    49 H       0.636716     2.432842    -1.226825 H          1 UNL1 0.000
    50 H       1.917464     2.455202    -3.346979 H          1 UNL1 0.000
    51 H       1.700525    -1.694402    -0.565781 H          1 UNL1 0.000
    52 H       3.512287     0.785079    -4.961292 H          1 UNL1 0.000
    53 H       4.369098    -1.574300    -4.994607 H          1 UNL1 0.000
    54 H       3.418229    -2.790218    -2.751665 H          1 UNL1 0.000
@<TRIPOS>BOND
     1      1      2   2
     2      2      3   1
     3      3      4   2
     4      4      5   1
     5      5      6   2
     6      6      1   1
     7      4      7   1
     8      7      8   1
     9      8      9   2
    10      9     10   1
    11     10     11   2
    12     11     12   1
    13     12     13   2
    14     13      8   1
    15     14     15   2
    16     15     16   1
    17     16     17   2
    18     17     18   1
    19     18     19   2
    20     19     14   1
    21     17     20   1
    22     20     21   2
    23     21     22   1
    24     22     23   2
    25     23     18   1
    26      7     14   1
    27      1     24   1
    28      2     25   1
    29      3     26   1
    30      5     27   1
    31      6     28   1
    32      9     29   1
    33     10     30   1
    34     11     31   1
    35     12     32   1
    36     13     33   1
    37     15     34   1
    38     16     35   1
    39     19     36   1
    40     20     37   1
    41     21     38   1
    42     23     39   1
    43     40     41   2
    44     41     42   1
    45     42     43   2
    46     43     44   1
    47     44     45   2
    48     45     40   1
    49     43     46   1
    50     46     47   1
    51     47     48   2
    52     48     44   1
    53     41     49   1
    54     42     50   1
    55     45     51   1
    56     46     52   1
    57     47     53   1
    58     48     54   1
    59     22     40   1
