# Produced with molli package
@<TRIPOS>MOLECULE
A_5_N
47 51 0 0 0
SMALL
USER_CHARGES

@<TRIPOS>ATOM
     1 C      -7.346793     4.260689     3.394891 C          1 UNL1 0.000
     2 C      -7.931493     3.106946     3.909598 C          1 UNL1 0.000
     3 C      -7.282608     1.873256     3.785486 C          1 UNL1 0.000
     4 C      -6.044527     1.763438     3.128806 C          1 UNL1 0.000
     5 C      -5.466414     2.949730     2.634336 C          1 UNL1 0.000
     6 C      -6.110667     4.183854     2.762349 C          1 UNL1 0.000
     7 N      -5.366523     0.494083     2.987785 N          1 UNL1 0.000
     8 C      -6.063241    -0.763632     2.848408 C          1 UNL1 0.000
     9 C      -7.314929    -0.848827     2.212964 C          1 UNL1 0.000
    10 C      -7.993721    -2.067535     2.103558 C          1 UNL1 0.000
    11 C      -7.425271    -3.232328     2.610464 C          1 UNL1 0.000
    12 C      -6.174697    -3.181357     3.217192 C          1 UNL1 0.000
    13 C      -5.500265    -1.961486     3.330271 C          1 UNL1 0.000
    14 C      -3.929598     0.489403     3.009532 C          1 UNL1 0.000
    15 C      -3.242454     0.698351     4.211380 C          1 UNL1 0.000
    16 C      -1.847531     0.724672     4.229365 C          1 UNL1 0.000
    17 C      -1.115093     0.586419     3.040817 C          1 UNL1 0.000
    18 C      -1.801121     0.388484     1.818781 C          1 UNL1 0.000
    19 C      -3.203131     0.314050     1.822135 C          1 UNL1 0.000
    20 C       0.285468     0.664912     3.038625 C          1 UNL1 0.000
    21 C       1.001622     0.591713     1.842065 C          1 UNL1 0.000
    22 C       0.327843     0.420273     0.630772 C          1 UNL1 0.000
    23 C      -1.067375     0.302127     0.623859 C          1 UNL1 0.000
    24 H      -7.849970     5.218981     3.492153 H          1 UNL1 0.000
    25 H      -8.891804     3.164335     4.415269 H          1 UNL1 0.000
    26 H      -7.750506     0.997396     4.227757 H          1 UNL1 0.000
    27 H      -4.507180     2.926260     2.123284 H          1 UNL1 0.000
    28 H      -5.643477     5.080835     2.364191 H          1 UNL1 0.000
    29 H      -7.773147     0.036476     1.779156 H          1 UNL1 0.000
    30 H      -8.965136    -2.103841     1.617453 H          1 UNL1 0.000
    31 H      -7.952442    -4.178985     2.527231 H          1 UNL1 0.000
    32 H      -5.720513    -4.087934     3.608606 H          1 UNL1 0.000
    33 H      -4.531388    -1.958400     3.823123 H          1 UNL1 0.000
    34 H      -3.799014     0.832800     5.135489 H          1 UNL1 0.000
    35 H      -1.338170     0.878425     5.177981 H          1 UNL1 0.000
    36 H      -3.748244     0.165357     0.892331 H          1 UNL1 0.000
    37 H       0.831015     0.805579     3.969249 H          1 UNL1 0.000
    38 H       2.085737     0.675697     1.862914 H          1 UNL1 0.000
    39 H      -1.589736     0.179814    -0.323355 H          1 UNL1 0.000
    40 C       1.072480     0.419312    -0.616807 C          1 UNL1 0.000
    41 C       1.132042    -0.695410    -1.428655 C          1 UNL1 0.000
    42 S       2.072513    -0.424970    -2.834517 S          1 UNL1 0.000
    43 C       2.405675     1.187107    -2.370054 C          1 UNL1 0.000
    44 C       1.818840     1.509054    -1.166173 C          1 UNL1 0.000
    45 H       0.675989    -1.663016    -1.267719 H          1 UNL1 0.000
    46 H       3.013960     1.821121    -3.000466 H          1 UNL1 0.000
    47 H       1.908559     2.485629    -0.705340 H          1 UNL1 0.000
@<TRIPOS>BOND
     1      1      2   2
     2      2      3   1
     3      3      4   2
     4      4      5   1
     5      5      6   2
     6      6      1   1
     7      4      7   1
     8      7      8   1
     9      8      9   2
    10      9     10   1
    11     10     11   2
    12     11     12   1
    13     12     13   2
    14     13      8   1
    15     14     15   2
    16     15     16   1
    17     16     17   2
    18     17     18   1
    19     18     19   2
    20     19     14   1
    21     17     20   1
    22     20     21   2
    23     21     22   1
    24     22     23   2
    25     23     18   1
    26      7     14   1
    27      1     24   1
    28      2     25   1
    29      3     26   1
    30      5     27   1
    31      6     28   1
    32      9     29   1
    33     10     30   1
    34     11     31   1
    35     12     32   1
    36     13     33   1
    37     15     34   1
    38     16     35   1
    39     19     36   1
    40     20     37   1
    41     21     38   1
    42     23     39   1
    43     40     41   2
    44     41     42   1
    45     42     43   1
    46     43     44   2
    47     44     40   1
    48     41     45   1
    49     43     46   1
    50     44     47   1
    51     22     40   1
