# Produced with molli package
@<TRIPOS>MOLECULE
A_5_O
49 53 0 0 0
SMALL
USER_CHARGES

@<TRIPOS>ATOM
     1 C      -7.419098     4.238144     3.311639 C          1 UNL1 0.000
     2 C      -7.975718     3.094693     3.877602 C          1 UNL1 0.000
     3 C      -7.305945     1.868805     3.791400 C          1 UNL1 0.000
     4 C      -6.074940     1.755221     3.121815 C          1 UNL1 0.000
     5 C      -5.526254     2.932011     2.573691 C          1 UNL1 0.000
     6 C      -6.190705     4.158776     2.664683 C          1 UNL1 0.000
     7 N      -5.372643     0.494573     3.022496 N          1 UNL1 0.000
     8 C      -6.043596    -0.783835     2.978219 C          1 UNL1 0.000
     9 C      -7.304630    -0.935304     2.374380 C          1 UNL1 0.000
    10 C      -7.960894    -2.171119     2.360689 C          1 UNL1 0.000
    11 C      -7.359968    -3.288156     2.933467 C          1 UNL1 0.000
    12 C      -6.099141    -3.173073     3.509452 C          1 UNL1 0.000
    13 C      -5.447091    -1.935985     3.526446 C          1 UNL1 0.000
    14 C      -3.935465     0.520994     3.017386 C          1 UNL1 0.000
    15 C      -3.232914     0.797033     4.196494 C          1 UNL1 0.000
    16 C      -1.839085     0.852318     4.188446 C          1 UNL1 0.000
    17 C      -1.124474     0.674725     2.994176 C          1 UNL1 0.000
    18 C      -1.824578     0.412141     1.794016 C          1 UNL1 0.000
    19 C      -3.225469     0.310286     1.825293 C          1 UNL1 0.000
    20 C       0.272818     0.779060     2.965580 C          1 UNL1 0.000
    21 C       0.970569     0.662700     1.761148 C          1 UNL1 0.000
    22 C       0.292223     0.426502     0.558716 C          1 UNL1 0.000
    23 C      -1.105066     0.289323     0.591544 C          1 UNL1 0.000
    24 H      -7.937496     5.190712     3.380574 H          1 UNL1 0.000
    25 H      -8.929685     3.154409     4.394825 H          1 UNL1 0.000
    26 H      -7.751842     1.003675     4.275306 H          1 UNL1 0.000
    27 H      -4.573227     2.906942     2.050810 H          1 UNL1 0.000
    28 H      -5.744207     5.047951     2.227116 H          1 UNL1 0.000
    29 H      -7.788148    -0.089198     1.892351 H          1 UNL1 0.000
    30 H      -8.940551    -2.258163     1.898178 H          1 UNL1 0.000
    31 H      -7.869953    -4.247744     2.925542 H          1 UNL1 0.000
    32 H      -5.619686    -4.042293     3.952053 H          1 UNL1 0.000
    33 H      -4.469397    -1.881492     3.998312 H          1 UNL1 0.000
    34 H      -3.776380     0.962539     5.123278 H          1 UNL1 0.000
    35 H      -1.316726     1.060152     5.119259 H          1 UNL1 0.000
    36 H      -3.782332     0.112525     0.912022 H          1 UNL1 0.000
    37 H       0.830618     0.978808     3.877534 H          1 UNL1 0.000
    38 H       2.052285     0.782140     1.757904 H          1 UNL1 0.000
    39 H      -1.639185     0.120807    -0.342430 H          1 UNL1 0.000
    40 C       1.027041     0.359161    -0.704292 C          1 UNL1 0.000
    41 N       1.276036     1.552271    -1.297815 N          1 UNL1 0.000
    42 C       1.968353     1.536248    -2.457044 C          1 UNL1 0.000
    43 C       2.435005     0.380519    -3.059246 C          1 UNL1 0.000
    44 C       2.173156    -0.834763    -2.437826 C          1 UNL1 0.000
    45 C       1.457195    -0.850171    -1.243177 C          1 UNL1 0.000
    46 H       2.145004     2.511283    -2.902128 H          1 UNL1 0.000
    47 H       2.990022     0.427474    -3.989346 H          1 UNL1 0.000
    48 H       2.525415    -1.763309    -2.877512 H          1 UNL1 0.000
    49 H       1.246115    -1.787311    -0.738719 H          1 UNL1 0.000
@<TRIPOS>BOND
     1      1      2   2
     2      2      3   1
     3      3      4   2
     4      4      5   1
     5      5      6   2
     6      6      1   1
     7      4      7   1
     8      7      8   1
     9      8      9   2
    10      9     10   1
    11     10     11   2
    12     11     12   1
    13     12     13   2
    14     13      8   1
    15     14     15   2
    16     15     16   1
    17     16     17   2
    18     17     18   1
    19     18     19   2
    20     19     14   1
    21     17     20   1
    22     20     21   2
    23     21     22   1
    24     22     23   2
    25     23     18   1
    26      7     14   1
    27      1     24   1
    28      2     25   1
    29      3     26   1
    30      5     27   1
    31      6     28   1
    32      9     29   1
    33     10     30   1
    34     11     31   1
    35     12     32   1
    36     13     33   1
    37     15     34   1
    38     16     35   1
    39     19     36   1
    40     20     37   1
    41     21     38   1
    42     23     39   1
    43     40     41   2
    44     41     42   1
    45     42     43   2
    46     43     44   1
    47     44     45   2
    48     45     40   1
    49     42     46   1
    50     43     47   1
    51     44     48   1
    52     45     49   1
    53     22     40   1
