# Produced with molli package
@<TRIPOS>MOLECULE
A_5_K
52 56 0 0 0
SMALL
USER_CHARGES

@<TRIPOS>ATOM
     1 C      -7.267775     4.341582     3.294297 C          1 UNL1 0.000
     2 C      -7.916686     3.188382     3.722096 C          1 UNL1 0.000
     3 C      -7.281138     1.943412     3.626095 C          1 UNL1 0.000
     4 C      -5.998992     1.811545     3.063483 C          1 UNL1 0.000
     5 C      -5.358317     3.003624     2.662772 C          1 UNL1 0.000
     6 C      -5.981570     4.251394     2.776990 C          1 UNL1 0.000
     7 N      -5.333509     0.528953     2.932922 N          1 UNL1 0.000
     8 C      -6.022583    -0.745963     2.898128 C          1 UNL1 0.000
     9 C      -7.312901    -0.885595     2.357567 C          1 UNL1 0.000
    10 C      -7.986698    -2.113748     2.379337 C          1 UNL1 0.000
    11 C      -7.368487    -3.243642     2.905397 C          1 UNL1 0.000
    12 C      -6.071501    -3.150007     3.394305 C          1 UNL1 0.000
    13 C      -5.408020    -1.918493     3.386110 C          1 UNL1 0.000
    14 C      -3.894211     0.515567     2.920547 C          1 UNL1 0.000
    15 C      -3.180747     0.571248     4.124115 C          1 UNL1 0.000
    16 C      -1.787089     0.523640     4.116875 C          1 UNL1 0.000
    17 C      -1.080644     0.463375     2.906165 C          1 UNL1 0.000
    18 C      -1.789123     0.447432     1.682424 C          1 UNL1 0.000
    19 C      -3.194207     0.449032     1.705374 C          1 UNL1 0.000
    20 C       0.319771     0.427820     2.889001 C          1 UNL1 0.000
    21 C       1.017325     0.409556     1.679404 C          1 UNL1 0.000
    22 C       0.333787     0.430855     0.457432 C          1 UNL1 0.000
    23 C      -1.070105     0.439285     0.472611 C          1 UNL1 0.000
    24 H      -7.757638     5.308207     3.374633 H          1 UNL1 0.000
    25 H      -8.917301     3.253287     4.141763 H          1 UNL1 0.000
    26 H      -7.806948     1.079340     4.022140 H          1 UNL1 0.000
    27 H      -4.355903     2.983485     2.243486 H          1 UNL1 0.000
    28 H      -5.456788     5.148322     2.458268 H          1 UNL1 0.000
    29 H      -7.814285    -0.037661     1.898540 H          1 UNL1 0.000
    30 H      -8.995020    -2.184866     1.979790 H          1 UNL1 0.000
    31 H      -7.890732    -4.196394     2.924379 H          1 UNL1 0.000
    32 H      -5.570834    -4.030035     3.789788 H          1 UNL1 0.000
    33 H      -4.399921    -1.893538     3.790311 H          1 UNL1 0.000
    34 H      -3.717634     0.625794     5.067853 H          1 UNL1 0.000
    35 H      -1.256950     0.541700     5.066276 H          1 UNL1 0.000
    36 H      -3.760262     0.420868     0.776775 H          1 UNL1 0.000
    37 H       0.882869     0.423556     3.819685 H          1 UNL1 0.000
    38 H       2.105416     0.395347     1.696768 H          1 UNL1 0.000
    39 H      -1.610218     0.447039    -0.473158 H          1 UNL1 0.000
    40 C       1.078707     0.460191    -0.804469 C          1 UNL1 0.000
    41 C       1.243184     1.669171    -1.506054 C          1 UNL1 0.000
    42 C       1.988925     1.716352    -2.685825 C          1 UNL1 0.000
    43 C       2.557611     0.536337    -3.168415 C          1 UNL1 0.000
    44 C       2.401517    -0.681878    -2.503419 C          1 UNL1 0.000
    45 C       1.665712    -0.710744    -1.316620 C          1 UNL1 0.000
    46 N       3.339118     0.576667    -4.390614 N          1 UNL1 0.000
    47 O       4.273705     1.390469    -4.435089 O          1 UNL1 0.000
    48 O       3.016639    -0.202956    -5.294095 O          1 UNL1 0.000
    49 H       0.798194     2.585496    -1.120187 H          1 UNL1 0.000
    50 H       2.118643     2.659590    -3.211239 H          1 UNL1 0.000
    51 H       2.850444    -1.594316    -2.888027 H          1 UNL1 0.000
    52 H       1.549566    -1.653420    -0.783644 H          1 UNL1 0.000
@<TRIPOS>BOND
     1      1      2   2
     2      2      3   1
     3      3      4   2
     4      4      5   1
     5      5      6   2
     6      6      1   1
     7      4      7   1
     8      7      8   1
     9      8      9   2
    10      9     10   1
    11     10     11   2
    12     11     12   1
    13     12     13   2
    14     13      8   1
    15     14     15   2
    16     15     16   1
    17     16     17   2
    18     17     18   1
    19     18     19   2
    20     19     14   1
    21     17     20   1
    22     20     21   2
    23     21     22   1
    24     22     23   2
    25     23     18   1
    26      7     14   1
    27      1     24   1
    28      2     25   1
    29      3     26   1
    30      5     27   1
    31      6     28   1
    32      9     29   1
    33     10     30   1
    34     11     31   1
    35     12     32   1
    36     13     33   1
    37     15     34   1
    38     16     35   1
    39     19     36   1
    40     20     37   1
    41     21     38   1
    42     23     39   1
    43     40     41   2
    44     41     42   1
    45     42     43   2
    46     43     44   1
    47     44     45   2
    48     45     40   1
    49     46     47   2
    50     46     48   1
    51     43     46   1
    52     41     49   1
    53     42     50   1
    54     44     51   1
    55     45     52   1
    56     22     40   1
