# Produced with molli package
@<TRIPOS>MOLECULE
A_6_N
47 51 0 0 0
SMALL
USER_CHARGES

@<TRIPOS>ATOM
     1 C      -5.921435     4.337091     0.429085 C          1 UNL1 0.000
     2 C      -6.554214     3.218594    -0.103471 C          1 UNL1 0.000
     3 C      -5.909105     1.974929    -0.102684 C          1 UNL1 0.000
     4 C      -4.633173     1.808609     0.464180 C          1 UNL1 0.000
     5 C      -4.004680     2.968513     0.963963 C          1 UNL1 0.000
     6 C      -4.639501     4.215341     0.950469 C          1 UNL1 0.000
     7 N      -3.962708     0.522647     0.495953 N          1 UNL1 0.000
     8 C      -4.643535    -0.757119     0.573330 C          1 UNL1 0.000
     9 C      -5.944109    -0.890581     1.089765 C          1 UNL1 0.000
    10 C      -6.597965    -2.129765     1.120648 C          1 UNL1 0.000
    11 C      -5.950219    -3.276904     0.674524 C          1 UNL1 0.000
    12 C      -4.645432    -3.187784     0.207942 C          1 UNL1 0.000
    13 C      -4.003399    -1.945894     0.160037 C          1 UNL1 0.000
    14 C      -2.513306     0.517618     0.457944 C          1 UNL1 0.000
    15 C      -1.823391     0.450586     1.680305 C          1 UNL1 0.000
    16 C      -0.435893     0.456525     1.701869 C          1 UNL1 0.000
    17 C       0.286388     0.495293     0.501486 C          1 UNL1 0.000
    18 C      -0.381009     0.527015    -0.755622 C          1 UNL1 0.000
    19 C      -1.800112     0.551977    -0.776712 C          1 UNL1 0.000
    20 C       0.306468     0.516997    -1.995538 C          1 UNL1 0.000
    21 C      -0.369771     0.522961    -3.216045 C          1 UNL1 0.000
    22 C      -1.753979     0.553169    -3.233273 C          1 UNL1 0.000
    23 C      -2.457741     0.574016    -2.029968 C          1 UNL1 0.000
    24 H      -6.419598     5.302863     0.426259 H          1 UNL1 0.000
    25 H      -7.549727     3.311512    -0.529762 H          1 UNL1 0.000
    26 H      -6.418464     1.138927    -0.574132 H          1 UNL1 0.000
    27 H      -3.005745     2.923493     1.388152 H          1 UNL1 0.000
    28 H      -4.126945     5.086531     1.350379 H          1 UNL1 0.000
    29 H      -6.472471    -0.033003     1.496274 H          1 UNL1 0.000
    30 H      -7.613576    -2.195490     1.502274 H          1 UNL1 0.000
    31 H      -6.455362    -4.238515     0.701154 H          1 UNL1 0.000
    32 H      -4.120245    -4.079285    -0.125122 H          1 UNL1 0.000
    33 H      -2.986832    -1.930151    -0.223864 H          1 UNL1 0.000
    34 H      -2.380992     0.413752     2.613219 H          1 UNL1 0.000
    35 H       0.082730     0.429886     2.657872 H          1 UNL1 0.000
    36 H       1.394066     0.488511    -2.022884 H          1 UNL1 0.000
    37 H       0.189285     0.499955    -4.147629 H          1 UNL1 0.000
    38 H      -2.292266     0.554003    -4.177234 H          1 UNL1 0.000
    39 H      -3.545085     0.588584    -2.076349 H          1 UNL1 0.000
    40 C       1.740450     0.507446     0.599506 C          1 UNL1 0.000
    41 C       2.460610    -0.663043     0.731312 C          1 UNL1 0.000
    42 S       4.146130    -0.376640     0.822356 S          1 UNL1 0.000
    43 C       3.922816     1.314972     0.694465 C          1 UNL1 0.000
    44 C       2.592391     1.654722     0.583540 C          1 UNL1 0.000
    45 H       2.083030    -1.676063     0.772907 H          1 UNL1 0.000
    46 H       4.776873     1.978056     0.706808 H          1 UNL1 0.000
    47 H       2.244601     2.676775     0.491427 H          1 UNL1 0.000
@<TRIPOS>BOND
     1      1      2   2
     2      2      3   1
     3      3      4   2
     4      4      5   1
     5      5      6   2
     6      6      1   1
     7      4      7   1
     8      7      8   1
     9      8      9   2
    10      9     10   1
    11     10     11   2
    12     11     12   1
    13     12     13   2
    14     13      8   1
    15     14     15   2
    16     15     16   1
    17     16     17   2
    18     17     18   1
    19     18     19   2
    20     19     14   1
    21     18     20   1
    22     20     21   2
    23     21     22   1
    24     22     23   2
    25     23     19   1
    26      7     14   1
    27      1     24   1
    28      2     25   1
    29      3     26   1
    30      5     27   1
    31      6     28   1
    32      9     29   1
    33     10     30   1
    34     11     31   1
    35     12     32   1
    36     13     33   1
    37     15     34   1
    38     16     35   1
    39     20     36   1
    40     21     37   1
    41     22     38   1
    42     23     39   1
    43     40     41   2
    44     41     42   1
    45     42     43   1
    46     43     44   2
    47     44     40   1
    48     41     45   1
    49     43     46   1
    50     44     47   1
    51     17     40   1
