# Produced with molli package
@<TRIPOS>MOLECULE
A_6_R
51 55 0 0 0
SMALL
USER_CHARGES

@<TRIPOS>ATOM
     1 C      -5.868917     4.135151     0.883112 C          1 UNL1 0.000
     2 C      -6.433795     2.971921     1.396763 C          1 UNL1 0.000
     3 C      -5.753987     1.752316     1.292245 C          1 UNL1 0.000
     4 C      -4.508393     1.660571     0.646495 C          1 UNL1 0.000
     5 C      -3.949097     2.860489     0.160998 C          1 UNL1 0.000
     6 C      -4.620694     4.081838     0.274290 C          1 UNL1 0.000
     7 N      -3.805213     0.401968     0.508412 N          1 UNL1 0.000
     8 C      -4.464031    -0.886777     0.452392 C          1 UNL1 0.000
     9 C      -5.748171    -1.040365    -0.100415 C          1 UNL1 0.000
    10 C      -6.379717    -2.288987    -0.143824 C          1 UNL1 0.000
    11 C      -5.729483    -3.419430     0.341072 C          1 UNL1 0.000
    12 C      -4.445113    -3.303847     0.860366 C          1 UNL1 0.000
    13 C      -3.820053    -2.053433     0.911337 C          1 UNL1 0.000
    14 C      -2.358928     0.433529     0.439272 C          1 UNL1 0.000
    15 C      -1.645888     0.561036     1.641165 C          1 UNL1 0.000
    16 C      -0.256933     0.564537     1.634014 C          1 UNL1 0.000
    17 C       0.457163     0.466910     0.427350 C          1 UNL1 0.000
    18 C      -0.247730     0.391294    -0.809998 C          1 UNL1 0.000
    19 C      -1.668597     0.356693    -0.803943 C          1 UNL1 0.000
    20 C       0.413508     0.363463    -2.062724 C          1 UNL1 0.000
    21 C      -0.284834     0.303044    -3.269059 C          1 UNL1 0.000
    22 C      -1.668623     0.258889    -3.258843 C          1 UNL1 0.000
    23 C      -2.348790     0.282193    -2.042564 C          1 UNL1 0.000
    24 H      -6.395021     5.082395     0.964964 H          1 UNL1 0.000
    25 H      -7.403120     3.010476     1.886844 H          1 UNL1 0.000
    26 H      -6.210019     0.874229     1.741723 H          1 UNL1 0.000
    27 H      -2.980667     2.864315    -0.332928 H          1 UNL1 0.000
    28 H      -4.163764     4.986624    -0.118322 H          1 UNL1 0.000
    29 H      -6.270723    -0.188078    -0.526976 H          1 UNL1 0.000
    30 H      -7.377807    -2.376012    -0.565252 H          1 UNL1 0.000
    31 H      -6.218006    -4.389515     0.305336 H          1 UNL1 0.000
    32 H      -3.924217    -4.183868     1.228632 H          1 UNL1 0.000
    33 H      -2.819509    -2.007044     1.331855 H          1 UNL1 0.000
    34 H      -2.183886     0.638337     2.583012 H          1 UNL1 0.000
    35 H       0.277007     0.648522     2.578869 H          1 UNL1 0.000
    36 H       1.499392     0.417075    -2.115646 H          1 UNL1 0.000
    37 H       0.255850     0.301001    -4.211626 H          1 UNL1 0.000
    38 H      -2.224486     0.218664    -4.191551 H          1 UNL1 0.000
    39 H      -3.436870     0.262386    -2.068604 H          1 UNL1 0.000
    40 C       1.923541     0.431779     0.494496 C          1 UNL1 0.000
    41 N       2.549570     1.637825     0.447538 N          1 UNL1 0.000
    42 C       3.902814     1.641487     0.488920 C          1 UNL1 0.000
    43 C       4.642453     0.479368     0.588378 C          1 UNL1 0.000
    44 C       4.010252    -0.757960     0.648194 C          1 UNL1 0.000
    45 C       2.618158    -0.778353     0.596211 C          1 UNL1 0.000
    46 N       6.075126     0.567382     0.625629 N          1 UNL1 0.000
    47 O       6.644131     0.879795    -0.428784 O          1 UNL1 0.000
    48 O       6.624795     0.320324     1.704017 O          1 UNL1 0.000
    49 H       4.365060     2.623509     0.441775 H          1 UNL1 0.000
    50 H       4.575395    -1.682310     0.724234 H          1 UNL1 0.000
    51 H       2.078807    -1.721138     0.627386 H          1 UNL1 0.000
@<TRIPOS>BOND
     1      1      2   2
     2      2      3   1
     3      3      4   2
     4      4      5   1
     5      5      6   2
     6      6      1   1
     7      4      7   1
     8      7      8   1
     9      8      9   2
    10      9     10   1
    11     10     11   2
    12     11     12   1
    13     12     13   2
    14     13      8   1
    15     14     15   2
    16     15     16   1
    17     16     17   2
    18     17     18   1
    19     18     19   2
    20     19     14   1
    21     18     20   1
    22     20     21   2
    23     21     22   1
    24     22     23   2
    25     23     19   1
    26      7     14   1
    27      1     24   1
    28      2     25   1
    29      3     26   1
    30      5     27   1
    31      6     28   1
    32      9     29   1
    33     10     30   1
    34     11     31   1
    35     12     32   1
    36     13     33   1
    37     15     34   1
    38     16     35   1
    39     20     36   1
    40     21     37   1
    41     22     38   1
    42     23     39   1
    43     40     41   2
    44     41     42   1
    45     42     43   2
    46     43     44   1
    47     44     45   2
    48     45     40   1
    49     46     47   2
    50     46     48   1
    51     43     46   1
    52     42     49   1
    53     44     50   1
    54     45     51   1
    55     17     40   1
