# Produced with molli package
@<TRIPOS>MOLECULE
A_6_T
53 57 0 0 0
SMALL
USER_CHARGES

@<TRIPOS>ATOM
     1 C      -5.841783     4.231284     0.355483 C          1 UNL1 0.000
     2 C      -6.446651     3.111898    -0.207356 C          1 UNL1 0.000
     3 C      -5.790253     1.875745    -0.192801 C          1 UNL1 0.000
     4 C      -4.527486     1.722522     0.407972 C          1 UNL1 0.000
     5 C      -3.926011     2.879531     0.941046 C          1 UNL1 0.000
     6 C      -4.576443     4.117936     0.920608 C          1 UNL1 0.000
     7 N      -3.851076     0.442533     0.443765 N          1 UNL1 0.000
     8 C      -4.541177    -0.827687     0.544774 C          1 UNL1 0.000
     9 C      -5.812657    -0.941059     1.135049 C          1 UNL1 0.000
    10 C      -6.482269    -2.169061     1.199378 C          1 UNL1 0.000
    11 C      -5.881236    -3.321185     0.702871 C          1 UNL1 0.000
    12 C      -4.607330    -3.248095     0.152232 C          1 UNL1 0.000
    13 C      -3.946280    -2.017718     0.077610 C          1 UNL1 0.000
    14 C      -2.403566     0.433828     0.391109 C          1 UNL1 0.000
    15 C      -1.700980     0.323506     1.601039 C          1 UNL1 0.000
    16 C      -0.312032     0.324010     1.607786 C          1 UNL1 0.000
    17 C       0.413786     0.405025     0.407627 C          1 UNL1 0.000
    18 C      -0.280073     0.479479    -0.836797 C          1 UNL1 0.000
    19 C      -1.700841     0.507622    -0.845609 C          1 UNL1 0.000
    20 C       0.394261     0.510153    -2.082379 C          1 UNL1 0.000
    21 C      -0.291486     0.560880    -3.296451 C          1 UNL1 0.000
    22 C      -1.675524     0.593480    -3.301237 C          1 UNL1 0.000
    23 C      -2.368632     0.571943    -2.091945 C          1 UNL1 0.000
    24 H      -6.349962     5.191780     0.344638 H          1 UNL1 0.000
    25 H      -7.428306     3.198003    -0.665759 H          1 UNL1 0.000
    26 H      -6.275425     1.032140    -0.677034 H          1 UNL1 0.000
    27 H      -2.941970     2.834008     1.399072 H          1 UNL1 0.000
    28 H      -4.090019     4.990314     1.349359 H          1 UNL1 0.000
    29 H      -6.299892    -0.073195     1.571401 H          1 UNL1 0.000
    30 H      -7.472390    -2.222033     1.644454 H          1 UNL1 0.000
    31 H      -6.399589    -4.274818     0.753117 H          1 UNL1 0.000
    32 H      -4.122337    -4.144351    -0.225788 H          1 UNL1 0.000
    33 H      -2.956855    -2.007290    -0.372163 H          1 UNL1 0.000
    34 H      -2.247229     0.255724     2.538694 H          1 UNL1 0.000
    35 H       0.213370     0.260086     2.559008 H          1 UNL1 0.000
    36 H       1.481848     0.480476    -2.120751 H          1 UNL1 0.000
    37 H       0.260581     0.570765    -4.232260 H          1 UNL1 0.000
    38 H      -2.221380     0.629189    -4.239933 H          1 UNL1 0.000
    39 H      -3.456162     0.588282    -2.128965 H          1 UNL1 0.000
    40 C       1.883761     0.401599     0.489284 C          1 UNL1 0.000
    41 C       2.603975     1.604981     0.488565 C          1 UNL1 0.000
    42 C       4.000344     1.602477     0.548138 C          1 UNL1 0.000
    43 C       4.704541     0.395110     0.603140 C          1 UNL1 0.000
    44 C       3.990176    -0.807997     0.625735 C          1 UNL1 0.000
    45 C       2.594032    -0.804454     0.566794 C          1 UNL1 0.000
    46 C       6.202122     0.382883     0.684675 C          1 UNL1 0.000
    47 H       2.075213     2.554656     0.435224 H          1 UNL1 0.000
    48 H       4.532033     2.551269     0.546066 H          1 UNL1 0.000
    49 H       4.516608    -1.757945     0.684865 H          1 UNL1 0.000
    50 H       2.058184    -1.751409     0.574109 H          1 UNL1 0.000
    51 H       6.614823    -0.394885     0.033515 H          1 UNL1 0.000
    52 H       6.520182     0.194185     1.714583 H          1 UNL1 0.000
    53 H       6.625535     1.338863     0.359153 H          1 UNL1 0.000
@<TRIPOS>BOND
     1      1      2   2
     2      2      3   1
     3      3      4   2
     4      4      5   1
     5      5      6   2
     6      6      1   1
     7      4      7   1
     8      7      8   1
     9      8      9   2
    10      9     10   1
    11     10     11   2
    12     11     12   1
    13     12     13   2
    14     13      8   1
    15     14     15   2
    16     15     16   1
    17     16     17   2
    18     17     18   1
    19     18     19   2
    20     19     14   1
    21     18     20   1
    22     20     21   2
    23     21     22   1
    24     22     23   2
    25     23     19   1
    26      7     14   1
    27      1     24   1
    28      2     25   1
    29      3     26   1
    30      5     27   1
    31      6     28   1
    32      9     29   1
    33     10     30   1
    34     11     31   1
    35     12     32   1
    36     13     33   1
    37     15     34   1
    38     16     35   1
    39     20     36   1
    40     21     37   1
    41     22     38   1
    42     23     39   1
    43     40     41   2
    44     41     42   1
    45     42     43   2
    46     43     44   1
    47     44     45   2
    48     45     40   1
    49     43     46   1
    50     41     47   1
    51     42     48   1
    52     44     49   1
    53     45     50   1
    54     46     51   1
    55     46     52   1
    56     46     53   1
    57     17     40   1
