# Produced with molli package
@<TRIPOS>MOLECULE
A_6_Q
48 52 0 0 0
SMALL
USER_CHARGES

@<TRIPOS>ATOM
     1 C      -5.870423     4.359032     0.271157 C          1 UNL1 0.000
     2 C      -6.509520     3.230110    -0.231637 C          1 UNL1 0.000
     3 C      -5.875755     1.982546    -0.185341 C          1 UNL1 0.000
     4 C      -4.602396     1.827403     0.391183 C          1 UNL1 0.000
     5 C      -3.968859     2.993250     0.867109 C          1 UNL1 0.000
     6 C      -4.594782     4.243045     0.811165 C          1 UNL1 0.000
     7 N      -3.940794     0.539867     0.454629 N          1 UNL1 0.000
     8 C      -4.639530    -0.724063     0.574015 C          1 UNL1 0.000
     9 C      -5.911682    -0.823410     1.164532 C          1 UNL1 0.000
    10 C      -6.587209    -2.047590     1.244193 C          1 UNL1 0.000
    11 C      -5.990573    -3.209687     0.765632 C          1 UNL1 0.000
    12 C      -4.715336    -3.150392     0.216854 C          1 UNL1 0.000
    13 C      -4.049516    -1.923891     0.124658 C          1 UNL1 0.000
    14 C      -2.493340     0.516547     0.400178 C          1 UNL1 0.000
    15 C      -1.791140     0.382143     1.607776 C          1 UNL1 0.000
    16 C      -0.402357     0.382043     1.613509 C          1 UNL1 0.000
    17 C       0.323639     0.495058     0.414979 C          1 UNL1 0.000
    18 C      -0.370287     0.579672    -0.828560 C          1 UNL1 0.000
    19 C      -1.790812     0.605708    -0.835820 C          1 UNL1 0.000
    20 C       0.302919     0.619914    -2.075250 C          1 UNL1 0.000
    21 C      -0.385071     0.685365    -3.287510 C          1 UNL1 0.000
    22 C      -1.768785     0.719571    -3.290036 C          1 UNL1 0.000
    23 C      -2.460309     0.682937    -2.080405 C          1 UNL1 0.000
    24 H      -6.360210     5.328363     0.232784 H          1 UNL1 0.000
    25 H      -7.500412     3.317634    -0.669591 H          1 UNL1 0.000
    26 H      -6.388341     1.132840    -0.628578 H          1 UNL1 0.000
    27 H      -2.975565     2.946907     1.304671 H          1 UNL1 0.000
    28 H      -4.081187     5.122051     1.192017 H          1 UNL1 0.000
    29 H      -6.395283     0.052009     1.589407 H          1 UNL1 0.000
    30 H      -7.578525    -2.090182     1.687776 H          1 UNL1 0.000
    31 H      -6.512959    -4.160365     0.828898 H          1 UNL1 0.000
    32 H      -4.232471    -4.054242    -0.145683 H          1 UNL1 0.000
    33 H      -3.058915    -1.924905    -0.323287 H          1 UNL1 0.000
    34 H      -2.337649     0.295261     2.543951 H          1 UNL1 0.000
    35 H       0.123704     0.290463     2.562534 H          1 UNL1 0.000
    36 H       1.389547     0.573068    -2.120723 H          1 UNL1 0.000
    37 H       0.164740     0.699120    -4.224822 H          1 UNL1 0.000
    38 H      -2.316323     0.762669    -4.227608 H          1 UNL1 0.000
    39 H      -3.547918     0.694416    -2.116855 H          1 UNL1 0.000
    40 C       1.786831     0.530154     0.496523 C          1 UNL1 0.000
    41 N       2.418736    -0.667173     0.593307 N          1 UNL1 0.000
    42 C       3.769500    -0.615984     0.649252 C          1 UNL1 0.000
    43 C       4.472371     0.576764     0.618963 C          1 UNL1 0.000
    44 N       3.857879     1.777151     0.532384 N          1 UNL1 0.000
    45 C       2.503961     1.725511     0.472855 C          1 UNL1 0.000
    46 H       4.277358    -1.571209     0.717433 H          1 UNL1 0.000
    47 H       5.555229     0.597870     0.663171 H          1 UNL1 0.000
    48 H       2.001939     2.684810     0.400162 H          1 UNL1 0.000
@<TRIPOS>BOND
     1      1      2   2
     2      2      3   1
     3      3      4   2
     4      4      5   1
     5      5      6   2
     6      6      1   1
     7      4      7   1
     8      7      8   1
     9      8      9   2
    10      9     10   1
    11     10     11   2
    12     11     12   1
    13     12     13   2
    14     13      8   1
    15     14     15   2
    16     15     16   1
    17     16     17   2
    18     17     18   1
    19     18     19   2
    20     19     14   1
    21     18     20   1
    22     20     21   2
    23     21     22   1
    24     22     23   2
    25     23     19   1
    26      7     14   1
    27      1     24   1
    28      2     25   1
    29      3     26   1
    30      5     27   1
    31      6     28   1
    32      9     29   1
    33     10     30   1
    34     11     31   1
    35     12     32   1
    36     13     33   1
    37     15     34   1
    38     16     35   1
    39     20     36   1
    40     21     37   1
    41     22     38   1
    42     23     39   1
    43     40     41   2
    44     41     42   1
    45     42     43   2
    46     43     44   1
    47     44     45   2
    48     45     40   1
    49     42     46   1
    50     43     47   1
    51     45     48   1
    52     17     40   1
