# Produced with molli package
@<TRIPOS>MOLECULE
A_6_K
52 56 0 0 0
SMALL
USER_CHARGES

@<TRIPOS>ATOM
     1 C      -5.819592     4.315226     0.108339 C          1 UNL1 0.000
     2 C      -6.433978     3.168670    -0.385464 C          1 UNL1 0.000
     3 C      -5.784511     1.932088    -0.302129 C          1 UNL1 0.000
     4 C      -4.515735     1.809312     0.293404 C          1 UNL1 0.000
     5 C      -3.907293     2.989690     0.762322 C          1 UNL1 0.000
     6 C      -4.553023     4.227558     0.676114 C          1 UNL1 0.000
     7 N      -3.840687     0.532184     0.382219 N          1 UNL1 0.000
     8 C      -4.538881    -0.726711     0.527102 C          1 UNL1 0.000
     9 C      -5.770967    -0.816568     1.198907 C          1 UNL1 0.000
    10 C      -6.450500    -2.034643     1.313426 C          1 UNL1 0.000
    11 C      -5.901116    -3.195446     0.777425 C          1 UNL1 0.000
    12 C      -4.667950    -3.141558     0.137428 C          1 UNL1 0.000
    13 C      -3.993498    -1.922437     0.019067 C          1 UNL1 0.000
    14 C      -2.394202     0.512058     0.332924 C          1 UNL1 0.000
    15 C      -1.696245     0.400680     1.545237 C          1 UNL1 0.000
    16 C      -0.307032     0.398501     1.557633 C          1 UNL1 0.000
    17 C       0.422920     0.479596     0.360144 C          1 UNL1 0.000
    18 C      -0.266137     0.554939    -0.887211 C          1 UNL1 0.000
    19 C      -1.687101     0.584601    -0.900822 C          1 UNL1 0.000
    20 C       0.411453     0.585642    -2.131223 C          1 UNL1 0.000
    21 C      -0.270312     0.639052    -3.347311 C          1 UNL1 0.000
    22 C      -1.654169     0.672932    -3.356256 C          1 UNL1 0.000
    23 C      -2.350462     0.650032    -2.149217 C          1 UNL1 0.000
    24 H      -6.322312     5.276474     0.042691 H          1 UNL1 0.000
    25 H      -7.417093     3.233676    -0.844289 H          1 UNL1 0.000
    26 H      -6.277570     1.063614    -0.731566 H          1 UNL1 0.000
    27 H      -2.921637     2.963051     1.218507 H          1 UNL1 0.000
    28 H      -4.062037     5.120567     1.054183 H          1 UNL1 0.000
    29 H      -6.213682     0.063538     1.658441 H          1 UNL1 0.000
    30 H      -7.407768    -2.073735     1.826620 H          1 UNL1 0.000
    31 H      -6.428941    -4.141360     0.864246 H          1 UNL1 0.000
    32 H      -4.226970    -4.044619    -0.276619 H          1 UNL1 0.000
    33 H      -3.038809    -1.921490    -0.500311 H          1 UNL1 0.000
    34 H      -2.246537     0.336239     2.480978 H          1 UNL1 0.000
    35 H       0.211912     0.334366     2.512319 H          1 UNL1 0.000
    36 H       1.498573     0.554304    -2.169398 H          1 UNL1 0.000
    37 H       0.283577     0.650008    -4.282117 H          1 UNL1 0.000
    38 H      -2.197467     0.710802    -4.296429 H          1 UNL1 0.000
    39 H      -3.438062     0.666793    -2.190484 H          1 UNL1 0.000
    40 C       1.893083     0.477311     0.445541 C          1 UNL1 0.000
    41 C       2.600599    -0.732301     0.548156 C          1 UNL1 0.000
    42 C       3.996877    -0.741566     0.605296 C          1 UNL1 0.000
    43 C       4.693154     0.471774     0.558728 C          1 UNL1 0.000
    44 C       4.008176     1.688420     0.465856 C          1 UNL1 0.000
    45 C       2.611792     1.685090     0.413896 C          1 UNL1 0.000
    46 N       6.157257     0.466644     0.600278 N          1 UNL1 0.000
    47 O       6.746573     1.475106     0.184029 O          1 UNL1 0.000
    48 O       6.716052    -0.544856     1.045708 O          1 UNL1 0.000
    49 H       2.059169    -1.677160     0.572215 H          1 UNL1 0.000
    50 H       4.520900    -1.692409     0.675407 H          1 UNL1 0.000
    51 H       4.540667     2.636707     0.432073 H          1 UNL1 0.000
    52 H       2.078374     2.631888     0.337454 H          1 UNL1 0.000
@<TRIPOS>BOND
     1      1      2   2
     2      2      3   1
     3      3      4   2
     4      4      5   1
     5      5      6   2
     6      6      1   1
     7      4      7   1
     8      7      8   1
     9      8      9   2
    10      9     10   1
    11     10     11   2
    12     11     12   1
    13     12     13   2
    14     13      8   1
    15     14     15   2
    16     15     16   1
    17     16     17   2
    18     17     18   1
    19     18     19   2
    20     19     14   1
    21     18     20   1
    22     20     21   2
    23     21     22   1
    24     22     23   2
    25     23     19   1
    26      7     14   1
    27      1     24   1
    28      2     25   1
    29      3     26   1
    30      5     27   1
    31      6     28   1
    32      9     29   1
    33     10     30   1
    34     11     31   1
    35     12     32   1
    36     13     33   1
    37     15     34   1
    38     16     35   1
    39     20     36   1
    40     21     37   1
    41     22     38   1
    42     23     39   1
    43     40     41   2
    44     41     42   1
    45     42     43   2
    46     43     44   1
    47     44     45   2
    48     45     40   1
    49     46     47   2
    50     46     48   1
    51     43     46   1
    52     41     49   1
    53     42     50   1
    54     44     51   1
    55     45     52   1
    56     17     40   1
