# Produced with molli package
@<TRIPOS>MOLECULE
A_6_S
55 59 0 0 0
SMALL
USER_CHARGES

@<TRIPOS>ATOM
     1 C      -5.945230     4.233516     0.421137 C          1 UNL1 0.000
     2 C      -6.556075     3.088237    -0.078549 C          1 UNL1 0.000
     3 C      -5.876654     1.863896    -0.063735 C          1 UNL1 0.000
     4 C      -4.586174     1.744816     0.483189 C          1 UNL1 0.000
     5 C      -3.981662     2.929059     0.951952 C          1 UNL1 0.000
     6 C      -4.651987     4.157073     0.924541 C          1 UNL1 0.000
     7 N      -3.881025     0.478439     0.524529 N          1 UNL1 0.000
     8 C      -4.535296    -0.813509     0.614350 C          1 UNL1 0.000
     9 C      -5.809929    -0.970776     1.186926 C          1 UNL1 0.000
    10 C      -6.449998    -2.216422     1.220111 C          1 UNL1 0.000
    11 C      -5.812135    -3.345960     0.718207 C          1 UNL1 0.000
    12 C      -4.529354    -3.233358     0.197226 C          1 UNL1 0.000
    13 C      -3.900279    -1.984808     0.149864 C          1 UNL1 0.000
    14 C      -2.433814     0.505055     0.445102 C          1 UNL1 0.000
    15 C      -1.706694     0.436349     1.643394 C          1 UNL1 0.000
    16 C      -0.317553     0.456526     1.622574 C          1 UNL1 0.000
    17 C       0.383809     0.516242     0.406406 C          1 UNL1 0.000
    18 C      -0.335278     0.556246    -0.825529 C          1 UNL1 0.000
    19 C      -1.756505     0.565504    -0.806387 C          1 UNL1 0.000
    20 C       0.312276     0.565772    -2.085575 C          1 UNL1 0.000
    21 C      -0.398710     0.580901    -3.286016 C          1 UNL1 0.000
    22 C      -1.782811     0.597098    -3.262998 C          1 UNL1 0.000
    23 C      -2.450144     0.594335    -2.039618 C          1 UNL1 0.000
    24 H      -6.470231     5.184865     0.407311 H          1 UNL1 0.000
    25 H      -7.560649     3.144423    -0.489724 H          1 UNL1 0.000
    26 H      -6.370658     1.004165    -0.508370 H          1 UNL1 0.000
    27 H      -2.975484     2.916356     1.361233 H          1 UNL1 0.000
    28 H      -4.158739     5.050125     1.299539 H          1 UNL1 0.000
    29 H      -6.326849    -0.124476     1.630967 H          1 UNL1 0.000
    30 H      -7.447187    -2.300733     1.644221 H          1 UNL1 0.000
    31 H      -6.307868    -4.312556     0.742603 H          1 UNL1 0.000
    32 H      -4.012796    -4.111864    -0.180840 H          1 UNL1 0.000
    33 H      -2.902451    -1.947809    -0.279014 H          1 UNL1 0.000
    34 H      -2.234156     0.379663     2.592596 H          1 UNL1 0.000
    35 H       0.225371     0.418185     2.565315 H          1 UNL1 0.000
    36 H       1.398698     0.545043    -2.148007 H          1 UNL1 0.000
    37 H       0.133099     0.574213    -4.233525 H          1 UNL1 0.000
    38 H      -2.348546     0.603296    -4.190530 H          1 UNL1 0.000
    39 H      -3.538616     0.595020    -2.054744 H          1 UNL1 0.000
    40 C       1.855526     0.512879     0.457209 C          1 UNL1 0.000
    41 C       2.561511    -0.691167     0.569399 C          1 UNL1 0.000
    42 C       3.959246    -0.697289     0.599090 C          1 UNL1 0.000
    43 C       4.685058     0.500335     0.518584 C          1 UNL1 0.000
    44 C       3.984835     1.705880     0.405407 C          1 UNL1 0.000
    45 C       2.583114     1.709573     0.381964 C          1 UNL1 0.000
    46 C       6.178720     0.409656     0.549151 C          1 UNL1 0.000
    47 C       7.032662     1.651843     0.532958 C          1 UNL1 0.000
    48 O       6.713283    -0.699286     0.569240 O          1 UNL1 0.000
    49 H       2.024601    -1.636599     0.624005 H          1 UNL1 0.000
    50 H       4.479275    -1.650790     0.680476 H          1 UNL1 0.000
    51 H       4.488520     2.662833     0.324445 H          1 UNL1 0.000
    52 H       2.054833     2.657967     0.292775 H          1 UNL1 0.000
    53 H       7.817529     1.540889     1.287940 H          1 UNL1 0.000
    54 H       6.489499     2.562955     0.777270 H          1 UNL1 0.000
    55 H       7.490207     1.756767    -0.454434 H          1 UNL1 0.000
@<TRIPOS>BOND
     1      1      2   2
     2      2      3   1
     3      3      4   2
     4      4      5   1
     5      5      6   2
     6      6      1   1
     7      4      7   1
     8      7      8   1
     9      8      9   2
    10      9     10   1
    11     10     11   2
    12     11     12   1
    13     12     13   2
    14     13      8   1
    15     14     15   2
    16     15     16   1
    17     16     17   2
    18     17     18   1
    19     18     19   2
    20     19     14   1
    21     18     20   1
    22     20     21   2
    23     21     22   1
    24     22     23   2
    25     23     19   1
    26      7     14   1
    27      1     24   1
    28      2     25   1
    29      3     26   1
    30      5     27   1
    31      6     28   1
    32      9     29   1
    33     10     30   1
    34     11     31   1
    35     12     32   1
    36     13     33   1
    37     15     34   1
    38     16     35   1
    39     20     36   1
    40     21     37   1
    41     22     38   1
    42     23     39   1
    43     40     41   2
    44     41     42   1
    45     42     43   2
    46     43     44   1
    47     44     45   2
    48     45     40   1
    49     43     46   1
    50     46     47   1
    51     46     48   2
    52     41     49   1
    53     42     50   1
    54     44     51   1
    55     45     52   1
    56     47     53   1
    57     47     54   1
    58     47     55   1
    59     17     40   1
