# Produced with molli package
@<TRIPOS>MOLECULE
A_6_L
54 59 0 0 0
SMALL
USER_CHARGES

@<TRIPOS>ATOM
     1 C      -5.806309     4.392060     0.296994 C          1 UNL1 0.000
     2 C      -6.464386     3.260195    -0.172481 C          1 UNL1 0.000
     3 C      -5.833082     2.010495    -0.134154 C          1 UNL1 0.000
     4 C      -4.543669     1.853307     0.405428 C          1 UNL1 0.000
     5 C      -3.892300     3.024050     0.846113 C          1 UNL1 0.000
     6 C      -4.514394     4.276408     0.795418 C          1 UNL1 0.000
     7 N      -3.883209     0.562738     0.462966 N          1 UNL1 0.000
     8 C      -4.582562    -0.704960     0.540300 C          1 UNL1 0.000
     9 C      -5.853102    -0.823469     1.130665 C          1 UNL1 0.000
    10 C      -6.539363    -2.044388     1.152181 C          1 UNL1 0.000
    11 C      -5.954011    -3.187078     0.616586 C          1 UNL1 0.000
    12 C      -4.676601    -3.113333     0.075503 C          1 UNL1 0.000
    13 C      -3.999674    -1.889720     0.043938 C          1 UNL1 0.000
    14 C      -2.435188     0.540540     0.406832 C          1 UNL1 0.000
    15 C      -1.729376     0.476680     1.618676 C          1 UNL1 0.000
    16 C      -0.340163     0.488909     1.622048 C          1 UNL1 0.000
    17 C       0.381346     0.532990     0.417421 C          1 UNL1 0.000
    18 C      -0.316380     0.554314    -0.827492 C          1 UNL1 0.000
    19 C      -1.735973     0.574522    -0.833817 C          1 UNL1 0.000
    20 C       0.354619     0.542881    -2.075483 C          1 UNL1 0.000
    21 C      -0.334556     0.543791    -3.288706 C          1 UNL1 0.000
    22 C      -1.718346     0.571823    -3.291053 C          1 UNL1 0.000
    23 C      -2.407805     0.594554    -2.079942 C          1 UNL1 0.000
    24 H      -6.292962     5.363016     0.262809 H          1 UNL1 0.000
    25 H      -7.468215     3.346631    -0.580081 H          1 UNL1 0.000
    26 H      -6.363722     1.162116    -0.557446 H          1 UNL1 0.000
    27 H      -2.883769     2.983600     1.248055 H          1 UNL1 0.000
    28 H      -3.983244     5.157371     1.146588 H          1 UNL1 0.000
    29 H      -6.328458     0.035263     1.597107 H          1 UNL1 0.000
    30 H      -7.531391    -2.099326     1.592762 H          1 UNL1 0.000
    31 H      -6.486342    -4.134204     0.630137 H          1 UNL1 0.000
    32 H      -4.201382    -4.002579    -0.330538 H          1 UNL1 0.000
    33 H      -3.008017    -1.881281    -0.400321 H          1 UNL1 0.000
    34 H      -2.273558     0.443082     2.559460 H          1 UNL1 0.000
    35 H       0.188497     0.467398     2.573414 H          1 UNL1 0.000
    36 H       1.442190     0.519738    -2.116114 H          1 UNL1 0.000
    37 H       0.215468     0.520782    -4.225462 H          1 UNL1 0.000
    38 H      -2.267155     0.570440    -4.228665 H          1 UNL1 0.000
    39 H      -3.495451     0.608315    -2.114081 H          1 UNL1 0.000
    40 C       1.852304     0.554758     0.488662 C          1 UNL1 0.000
    41 C       2.578856    -0.641549     0.568993 C          1 UNL1 0.000
    42 C       3.978355    -0.652822     0.593210 C          1 UNL1 0.000
    43 C       4.635164     0.580427     0.534723 C          1 UNL1 0.000
    44 C       3.952891     1.794403     0.467339 C          1 UNL1 0.000
    45 C       2.544534     1.780391     0.449840 C          1 UNL1 0.000
    46 N       5.980806     0.871955     0.525267 N          1 UNL1 0.000
    47 C       6.171502     2.226603     0.454748 C          1 UNL1 0.000
    48 C       4.932446     2.824503     0.421450 C          1 UNL1 0.000
    49 H       2.046820    -1.591344     0.598368 H          1 UNL1 0.000
    50 H       4.525195    -1.588374     0.644920 H          1 UNL1 0.000
    51 H       1.996180     2.716882     0.387300 H          1 UNL1 0.000
    52 H       6.716692     0.180281     0.559529 H          1 UNL1 0.000
    53 H       7.168079     2.646400     0.433030 H          1 UNL1 0.000
    54 H       4.746502     3.888932     0.363788 H          1 UNL1 0.000
@<TRIPOS>BOND
     1      1      2   2
     2      2      3   1
     3      3      4   2
     4      4      5   1
     5      5      6   2
     6      6      1   1
     7      4      7   1
     8      7      8   1
     9      8      9   2
    10      9     10   1
    11     10     11   2
    12     11     12   1
    13     12     13   2
    14     13      8   1
    15     14     15   2
    16     15     16   1
    17     16     17   2
    18     17     18   1
    19     18     19   2
    20     19     14   1
    21     18     20   1
    22     20     21   2
    23     21     22   1
    24     22     23   2
    25     23     19   1
    26      7     14   1
    27      1     24   1
    28      2     25   1
    29      3     26   1
    30      5     27   1
    31      6     28   1
    32      9     29   1
    33     10     30   1
    34     11     31   1
    35     12     32   1
    36     13     33   1
    37     15     34   1
    38     16     35   1
    39     20     36   1
    40     21     37   1
    41     22     38   1
    42     23     39   1
    43     40     41   2
    44     41     42   1
    45     42     43   2
    46     43     44   1
    47     44     45   2
    48     45     40   1
    49     43     46   1
    50     46     47   1
    51     47     48   2
    52     48     44   1
    53     41     49   1
    54     42     50   1
    55     45     51   1
    56     46     52   1
    57     47     53   1
    58     48     54   1
    59     17     40   1
