# Produced with molli package
@<TRIPOS>MOLECULE
A_6_O
49 53 0 0 0
SMALL
USER_CHARGES

@<TRIPOS>ATOM
     1 C      -5.975217     4.309119     0.935042 C          1 UNL1 0.000
     2 C      -6.569285     3.120255     1.345812 C          1 UNL1 0.000
     3 C      -5.890533     1.904812     1.196148 C          1 UNL1 0.000
     4 C      -4.616009     1.843032     0.604868 C          1 UNL1 0.000
     5 C      -4.031337     3.066743     0.218760 C          1 UNL1 0.000
     6 C      -4.700925     4.284167     0.380627 C          1 UNL1 0.000
     7 N      -3.910552     0.590913     0.425332 N          1 UNL1 0.000
     8 C      -4.567924    -0.696671     0.345400 C          1 UNL1 0.000
     9 C      -5.821701    -0.849796    -0.273052 C          1 UNL1 0.000
    10 C      -6.456795    -2.095701    -0.333149 C          1 UNL1 0.000
    11 C      -5.839934    -3.222103     0.203036 C          1 UNL1 0.000
    12 C      -4.583442    -3.106128     0.786948 C          1 UNL1 0.000
    13 C      -3.953497    -1.859190     0.851279 C          1 UNL1 0.000
    14 C      -2.463515     0.617405     0.366414 C          1 UNL1 0.000
    15 C      -1.756804     0.709561     1.575278 C          1 UNL1 0.000
    16 C      -0.368130     0.697031     1.576604 C          1 UNL1 0.000
    17 C       0.354020     0.619139     0.372914 C          1 UNL1 0.000
    18 C      -0.344103     0.557213    -0.869198 C          1 UNL1 0.000
    19 C      -1.765605     0.553952    -0.873554 C          1 UNL1 0.000
    20 C       0.325713     0.507777    -2.116635 C          1 UNL1 0.000
    21 C      -0.364648     0.478085    -3.328853 C          1 UNL1 0.000
    22 C      -1.749215     0.484883    -3.329763 C          1 UNL1 0.000
    23 C      -2.438137     0.516090    -2.118237 C          1 UNL1 0.000
    24 H      -6.499975     5.253103     1.054212 H          1 UNL1 0.000
    25 H      -7.560559     3.134073     1.791359 H          1 UNL1 0.000
    26 H      -6.372947     1.005321     1.569044 H          1 UNL1 0.000
    27 H      -3.042391     3.092823    -0.231670 H          1 UNL1 0.000
    28 H      -4.222554     5.208722     0.068164 H          1 UNL1 0.000
    29 H      -6.313941     0.001830    -0.735560 H          1 UNL1 0.000
    30 H      -7.430995    -2.184540    -0.806528 H          1 UNL1 0.000
    31 H      -6.331278    -4.190232     0.156547 H          1 UNL1 0.000
    32 H      -4.086836    -3.982740     1.194999 H          1 UNL1 0.000
    33 H      -2.974639    -1.811701     1.320761 H          1 UNL1 0.000
    34 H      -2.299387     0.762104     2.515981 H          1 UNL1 0.000
    35 H       0.161818     0.735658     2.526599 H          1 UNL1 0.000
    36 H       1.413575     0.489142    -2.156848 H          1 UNL1 0.000
    37 H       0.183981     0.446980    -4.266151 H          1 UNL1 0.000
    38 H      -2.298450     0.463508    -4.266899 H          1 UNL1 0.000
    39 H      -3.525863     0.522904    -2.152067 H          1 UNL1 0.000
    40 C       1.820971     0.618486     0.449289 C          1 UNL1 0.000
    41 N       2.411013    -0.601848     0.452145 N          1 UNL1 0.000
    42 C       3.759179    -0.638094     0.520136 C          1 UNL1 0.000
    43 C       4.558100     0.490645     0.588785 C          1 UNL1 0.000
    44 C       3.938670     1.734574     0.589479 C          1 UNL1 0.000
    45 C       2.549925     1.803877     0.520284 C          1 UNL1 0.000
    46 H       4.194232    -1.633447     0.517280 H          1 UNL1 0.000
    47 H       5.637301     0.401492     0.640941 H          1 UNL1 0.000
    48 H       4.530592     2.643657     0.642586 H          1 UNL1 0.000
    49 H       2.044963     2.764436     0.516425 H          1 UNL1 0.000
@<TRIPOS>BOND
     1      1      2   2
     2      2      3   1
     3      3      4   2
     4      4      5   1
     5      5      6   2
     6      6      1   1
     7      4      7   1
     8      7      8   1
     9      8      9   2
    10      9     10   1
    11     10     11   2
    12     11     12   1
    13     12     13   2
    14     13      8   1
    15     14     15   2
    16     15     16   1
    17     16     17   2
    18     17     18   1
    19     18     19   2
    20     19     14   1
    21     18     20   1
    22     20     21   2
    23     21     22   1
    24     22     23   2
    25     23     19   1
    26      7     14   1
    27      1     24   1
    28      2     25   1
    29      3     26   1
    30      5     27   1
    31      6     28   1
    32      9     29   1
    33     10     30   1
    34     11     31   1
    35     12     32   1
    36     13     33   1
    37     15     34   1
    38     16     35   1
    39     20     36   1
    40     21     37   1
    41     22     38   1
    42     23     39   1
    43     40     41   2
    44     41     42   1
    45     42     43   2
    46     43     44   1
    47     44     45   2
    48     45     40   1
    49     42     46   1
    50     43     47   1
    51     44     48   1
    52     45     49   1
    53     17     40   1
