# Produced with molli package
@<TRIPOS>MOLECULE
A_6_M
51 55 0 0 0
SMALL
USER_CHARGES

@<TRIPOS>ATOM
     1 C      -5.836235     4.384677     0.730525 C          1 UNL1 0.000
     2 C      -6.484165     3.242661     1.189136 C          1 UNL1 0.000
     3 C      -5.846741     1.995956     1.130392 C          1 UNL1 0.000
     4 C      -4.567959     1.848913     0.566299 C          1 UNL1 0.000
     5 C      -3.923850     3.032692     0.144941 C          1 UNL1 0.000
     6 C      -4.546736     4.282813     0.225186 C          1 UNL1 0.000
     7 N      -3.909955     0.561059     0.442691 N          1 UNL1 0.000
     8 C      -4.598021    -0.715689     0.365560 C          1 UNL1 0.000
     9 C      -5.915761    -0.837492    -0.109051 C          1 UNL1 0.000
    10 C      -6.573779    -2.074381    -0.142010 C          1 UNL1 0.000
    11 C      -5.912045    -3.231876     0.253044 C          1 UNL1 0.000
    12 C      -4.589540    -3.154682     0.669847 C          1 UNL1 0.000
    13 C      -3.944206    -1.914239     0.725058 C          1 UNL1 0.000
    14 C      -2.459817     0.548413     0.408729 C          1 UNL1 0.000
    15 C      -1.773404     0.615507     1.631200 C          1 UNL1 0.000
    16 C      -0.385215     0.577118     1.657534 C          1 UNL1 0.000
    17 C       0.355083     0.494862     0.466123 C          1 UNL1 0.000
    18 C      -0.321730     0.456601    -0.789710 C          1 UNL1 0.000
    19 C      -1.742432     0.474808    -0.819131 C          1 UNL1 0.000
    20 C       0.367867     0.414053    -2.026502 C          1 UNL1 0.000
    21 C      -0.302504     0.398145    -3.250144 C          1 UNL1 0.000
    22 C      -1.686734     0.416570    -3.274176 C          1 UNL1 0.000
    23 C      -2.395004     0.449911    -2.074445 C          1 UNL1 0.000
    24 H      -6.329080     5.351941     0.777539 H          1 UNL1 0.000
    25 H      -7.487266     3.318018     1.600984 H          1 UNL1 0.000
    26 H      -6.370964     1.142664     1.550992 H          1 UNL1 0.000
    27 H      -2.920902     3.004247    -0.272881 H          1 UNL1 0.000
    28 H      -4.020476     5.170730    -0.115553 H          1 UNL1 0.000
    29 H      -6.455080     0.027823    -0.483211 H          1 UNL1 0.000
    30 H      -7.603050    -2.130180    -0.486955 H          1 UNL1 0.000
    31 H      -6.419725    -4.192120     0.222625 H          1 UNL1 0.000
    32 H      -4.053024    -4.055634     0.956012 H          1 UNL1 0.000
    33 H      -2.912127    -1.907311     1.064678 H          1 UNL1 0.000
    34 H      -2.332610     0.677062     2.561780 H          1 UNL1 0.000
    35 H       0.125695     0.610627     2.618124 H          1 UNL1 0.000
    36 H       1.455860     0.403408    -2.052027 H          1 UNL1 0.000
    37 H       0.260749     0.375203    -4.179112 H          1 UNL1 0.000
    38 H      -2.220666     0.409930    -4.220435 H          1 UNL1 0.000
    39 H      -3.482290     0.472589    -2.125917 H          1 UNL1 0.000
    40 C       1.823421     0.463428     0.567992 C          1 UNL1 0.000
    41 C       2.558332     1.656015     0.650117 C          1 UNL1 0.000
    42 C       3.953856     1.630736     0.727103 C          1 UNL1 0.000
    43 C       4.633761     0.409310     0.726274 C          1 UNL1 0.000
    44 C       3.911701    -0.785618     0.654029 C          1 UNL1 0.000
    45 C       2.515864    -0.757422     0.577215 C          1 UNL1 0.000
    46 C       6.066028     0.383096     0.794117 C          1 UNL1 0.000
    47 N       7.224507     0.362985     0.846060 N          1 UNL1 0.000
    48 H       2.040949     2.614157     0.644429 H          1 UNL1 0.000
    49 H       4.501637     2.569608     0.782981 H          1 UNL1 0.000
    50 H       4.426764    -1.744543     0.652765 H          1 UNL1 0.000
    51 H       1.965425    -1.695036     0.515400 H          1 UNL1 0.000
@<TRIPOS>BOND
     1      1      2   2
     2      2      3   1
     3      3      4   2
     4      4      5   1
     5      5      6   2
     6      6      1   1
     7      4      7   1
     8      7      8   1
     9      8      9   2
    10      9     10   1
    11     10     11   2
    12     11     12   1
    13     12     13   2
    14     13      8   1
    15     14     15   2
    16     15     16   1
    17     16     17   2
    18     17     18   1
    19     18     19   2
    20     19     14   1
    21     18     20   1
    22     20     21   2
    23     21     22   1
    24     22     23   2
    25     23     19   1
    26      7     14   1
    27      1     24   1
    28      2     25   1
    29      3     26   1
    30      5     27   1
    31      6     28   1
    32      9     29   1
    33     10     30   1
    34     11     31   1
    35     12     32   1
    36     13     33   1
    37     15     34   1
    38     16     35   1
    39     20     36   1
    40     21     37   1
    41     22     38   1
    42     23     39   1
    43     40     41   2
    44     41     42   1
    45     42     43   2
    46     43     44   1
    47     44     45   2
    48     45     40   1
    49     46     47   3
    50     43     46   1
    51     41     48   1
    52     42     49   1
    53     44     50   1
    54     45     51   1
    55     17     40   1
