# Produced with molli package
@<TRIPOS>MOLECULE
A_6_P
54 58 0 0 0
SMALL
USER_CHARGES

@<TRIPOS>ATOM
     1 C      -5.886855     4.347810     0.411721 C          1 UNL1 0.000
     2 C      -6.518798     3.220769    -0.104316 C          1 UNL1 0.000
     3 C      -5.882489     1.974489    -0.060937 C          1 UNL1 0.000
     4 C      -4.613320     1.819084     0.524498 C          1 UNL1 0.000
     5 C      -3.987568     2.982783     1.015691 C          1 UNL1 0.000
     6 C      -4.616138     4.231198     0.963109 C          1 UNL1 0.000
     7 N      -3.944288     0.534925     0.577896 N          1 UNL1 0.000
     8 C      -4.635262    -0.735284     0.674874 C          1 UNL1 0.000
     9 C      -5.913322    -0.849864     1.249884 C          1 UNL1 0.000
    10 C      -6.584867    -2.077855     1.302016 C          1 UNL1 0.000
    11 C      -5.977991    -3.229867     0.812297 C          1 UNL1 0.000
    12 C      -4.696125    -3.156900     0.281041 C          1 UNL1 0.000
    13 C      -4.034458    -1.926227     0.215986 C          1 UNL1 0.000
    14 C      -2.497174     0.524047     0.498879 C          1 UNL1 0.000
    15 C      -1.773312     0.392782     1.693760 C          1 UNL1 0.000
    16 C      -0.383978     0.395820     1.674627 C          1 UNL1 0.000
    17 C       0.318467     0.504929     0.462960 C          1 UNL1 0.000
    18 C      -0.397079     0.611524    -0.766425 C          1 UNL1 0.000
    19 C      -1.818615     0.628203    -0.748867 C          1 UNL1 0.000
    20 C       0.252976     0.687099    -2.022563 C          1 UNL1 0.000
    21 C      -0.454817     0.763741    -3.222292 C          1 UNL1 0.000
    22 C      -1.839317     0.775618    -3.201695 C          1 UNL1 0.000
    23 C      -2.508820     0.713009    -1.981219 C          1 UNL1 0.000
    24 H      -6.377836     5.316501     0.373945 H          1 UNL1 0.000
    25 H      -7.505239     3.309181    -0.551932 H          1 UNL1 0.000
    26 H      -6.387996     1.127117    -0.516410 H          1 UNL1 0.000
    27 H      -2.997096     2.935524     1.459899 H          1 UNL1 0.000
    28 H      -4.107383     5.108716     1.353657 H          1 UNL1 0.000
    29 H      -6.406157     0.016945     1.681797 H          1 UNL1 0.000
    30 H      -7.581792    -2.131017     1.731736 H          1 UNL1 0.000
    31 H      -6.497965    -4.183129     0.852751 H          1 UNL1 0.000
    32 H      -4.205750    -4.053027    -0.090394 H          1 UNL1 0.000
    33 H      -3.039084    -1.916516    -0.220714 H          1 UNL1 0.000
    34 H      -2.302320     0.304264     2.639424 H          1 UNL1 0.000
    35 H       0.158537     0.306837     2.613958 H          1 UNL1 0.000
    36 H       1.340368     0.675947    -2.082063 H          1 UNL1 0.000
    37 H       0.079530     0.809200    -4.167136 H          1 UNL1 0.000
    38 H      -2.402778     0.828631    -4.128922 H          1 UNL1 0.000
    39 H      -3.597338     0.714454    -1.999200 H          1 UNL1 0.000
    40 C       1.789805     0.477824     0.514109 C          1 UNL1 0.000
    41 C       2.529497     1.667534     0.613500 C          1 UNL1 0.000
    42 C       3.926558     1.637636     0.639153 C          1 UNL1 0.000
    43 C       4.590240     0.414047     0.579859 C          1 UNL1 0.000
    44 C       3.874868    -0.773820     0.462246 C          1 UNL1 0.000
    45 C       2.479715    -0.742866     0.442161 C          1 UNL1 0.000
    46 O       5.955920     0.340829     0.556345 O          1 UNL1 0.000
    47 C       6.506957     0.704356     1.821416 C          1 UNL1 0.000
    48 H       2.015546     2.625997     0.652539 H          1 UNL1 0.000
    49 H       4.485520     2.567297     0.684295 H          1 UNL1 0.000
    50 H       4.400789    -1.720976     0.387342 H          1 UNL1 0.000
    51 H       1.927348    -1.676067     0.353552 H          1 UNL1 0.000
    52 H       7.568124     0.437644     1.811559 H          1 UNL1 0.000
    53 H       6.028738     0.153815     2.639812 H          1 UNL1 0.000
    54 H       6.431053     1.783471     1.988724 H          1 UNL1 0.000
@<TRIPOS>BOND
     1      1      2   2
     2      2      3   1
     3      3      4   2
     4      4      5   1
     5      5      6   2
     6      6      1   1
     7      4      7   1
     8      7      8   1
     9      8      9   2
    10      9     10   1
    11     10     11   2
    12     11     12   1
    13     12     13   2
    14     13      8   1
    15     14     15   2
    16     15     16   1
    17     16     17   2
    18     17     18   1
    19     18     19   2
    20     19     14   1
    21     18     20   1
    22     20     21   2
    23     21     22   1
    24     22     23   2
    25     23     19   1
    26      7     14   1
    27      1     24   1
    28      2     25   1
    29      3     26   1
    30      5     27   1
    31      6     28   1
    32      9     29   1
    33     10     30   1
    34     11     31   1
    35     12     32   1
    36     13     33   1
    37     15     34   1
    38     16     35   1
    39     20     36   1
    40     21     37   1
    41     22     38   1
    42     23     39   1
    43     40     41   2
    44     41     42   1
    45     42     43   2
    46     43     44   1
    47     44     45   2
    48     45     40   1
    49     46     47   1
    50     43     46   1
    51     41     48   1
    52     42     49   1
    53     44     50   1
    54     45     51   1
    55     47     52   1
    56     47     53   1
    57     47     54   1
    58     17     40   1
