# Produced with molli package
@<TRIPOS>MOLECULE
A_7_K
50 53 0 0 0
SMALL
USER_CHARGES

@<TRIPOS>ATOM
     1 C      -8.104695     4.269447     1.678935 C          1 UNL1 0.000
     2 C      -8.686058     3.150463     1.089072 C          1 UNL1 0.000
     3 C      -8.043073     1.907901     1.146883 C          1 UNL1 0.000
     4 C      -6.819258     1.750697     1.818930 C          1 UNL1 0.000
     5 C      -6.243133     2.905474     2.387599 C          1 UNL1 0.000
     6 C      -6.877407     4.149602     2.320747 C          1 UNL1 0.000
     7 N      -6.139665     0.475905     1.898882 N          1 UNL1 0.000
     8 C      -6.817244    -0.803084     1.963360 C          1 UNL1 0.000
     9 C      -8.130491    -0.932132     2.448693 C          1 UNL1 0.000
    10 C      -8.781922    -2.172103     2.477670 C          1 UNL1 0.000
    11 C      -8.121984    -3.321567     2.055021 C          1 UNL1 0.000
    12 C      -6.808945    -3.233532     1.609911 C          1 UNL1 0.000
    13 C      -6.167552    -1.991170     1.565050 C          1 UNL1 0.000
    14 C      -4.705045     0.488838     1.818743 C          1 UNL1 0.000
    15 C      -3.922295     0.293662     2.962230 C          1 UNL1 0.000
    16 C      -2.526293     0.305335     2.870618 C          1 UNL1 0.000
    17 C      -1.884019     0.485407     1.635003 C          1 UNL1 0.000
    18 C      -2.678384     0.670752     0.494450 C          1 UNL1 0.000
    19 C      -4.073000     0.685089     0.585462 C          1 UNL1 0.000
    20 C      -0.409059     0.472474     1.601008 C          1 UNL1 0.000
    21 C       0.348945     0.609582     0.501752 C          1 UNL1 0.000
    22 H      -8.602194     5.234467     1.631081 H          1 UNL1 0.000
    23 H      -9.638883     3.243056     0.574371 H          1 UNL1 0.000
    24 H      -8.505306     1.065937     0.638455 H          1 UNL1 0.000
    25 H      -5.290228     2.848019     2.907458 H          1 UNL1 0.000
    26 H      -6.409153     5.019935     2.773103 H          1 UNL1 0.000
    27 H      -8.668960    -0.068173     2.828338 H          1 UNL1 0.000
    28 H      -9.805142    -2.236624     2.838594 H          1 UNL1 0.000
    29 H      -8.625571    -4.284099     2.081197 H          1 UNL1 0.000
    30 H      -6.277645    -4.127057     1.292464 H          1 UNL1 0.000
    31 H      -5.144454    -1.970990     1.198292 H          1 UNL1 0.000
    32 H      -4.402176     0.149240     3.926911 H          1 UNL1 0.000
    33 H      -1.947372     0.169279     3.781624 H          1 UNL1 0.000
    34 H      -2.237605     0.805984    -0.488204 H          1 UNL1 0.000
    35 H      -4.671727     0.825033    -0.311266 H          1 UNL1 0.000
    36 H       0.080252     0.342995     2.565438 H          1 UNL1 0.000
    37 H      -0.062792     0.748534    -0.491720 H          1 UNL1 0.000
    38 C       1.809668     0.594308     0.564595 C          1 UNL1 0.000
    39 C       2.514678     1.803995     0.588895 C          1 UNL1 0.000
    40 C       3.911180     1.804366     0.609059 C          1 UNL1 0.000
    41 C       4.598128     0.584278     0.608717 C          1 UNL1 0.000
    42 C       3.902220    -0.631837     0.598605 C          1 UNL1 0.000
    43 C       2.505123    -0.621057     0.576897 C          1 UNL1 0.000
    44 N       6.063301     0.577721     0.609689 N          1 UNL1 0.000
    45 O       6.634328    -0.466324     0.947339 O          1 UNL1 0.000
    46 O       6.641407     1.621918     0.268083 O          1 UNL1 0.000
    47 H       1.978383     2.751253     0.585879 H          1 UNL1 0.000
    48 H       4.443228     2.753428     0.621962 H          1 UNL1 0.000
    49 H       4.427781    -1.584275     0.596332 H          1 UNL1 0.000
    50 H       1.962004    -1.564240     0.557389 H          1 UNL1 0.000
@<TRIPOS>BOND
     1      1      2   2
     2      2      3   1
     3      3      4   2
     4      4      5   1
     5      5      6   2
     6      6      1   1
     7      4      7   1
     8      7      8   1
     9      8      9   2
    10      9     10   1
    11     10     11   2
    12     11     12   1
    13     12     13   2
    14     13      8   1
    15     14     15   2
    16     15     16   1
    17     16     17   2
    18     17     18   1
    19     18     19   2
    20     19     14   1
    21     17     20   1
    22     20     21   2
    23      7     14   1
    24      1     22   1
    25      2     23   1
    26      3     24   1
    27      5     25   1
    28      6     26   1
    29      9     27   1
    30     10     28   1
    31     11     29   1
    32     12     30   1
    33     13     31   1
    34     15     32   1
    35     16     33   1
    36     18     34   1
    37     19     35   1
    38     20     36   1
    39     21     37   1
    40     38     39   2
    41     39     40   1
    42     40     41   2
    43     41     42   1
    44     42     43   2
    45     43     38   1
    46     44     45   2
    47     44     46   1
    48     41     44   1
    49     39     47   1
    50     40     48   1
    51     42     49   1
    52     43     50   1
    53     21     38   1
