# Produced with molli package
@<TRIPOS>MOLECULE
A_7_N
45 48 0 0 0
SMALL
USER_CHARGES

@<TRIPOS>ATOM
     1 C      -8.190281     4.296996     2.214862 C          1 UNL1 0.000
     2 C      -8.745190     3.138740     2.751589 C          1 UNL1 0.000
     3 C      -8.078932     1.915501     2.622144 C          1 UNL1 0.000
     4 C      -6.852107     1.821640     1.941287 C          1 UNL1 0.000
     5 C      -6.303830     3.010749     1.423438 C          1 UNL1 0.000
     6 C      -6.966599     4.234833     1.555568 C          1 UNL1 0.000
     7 N      -6.167192     0.560476     1.783802 N          1 UNL1 0.000
     8 C      -6.867379    -0.698712     1.671384 C          1 UNL1 0.000
     9 C      -8.099092    -0.801920     1.002904 C          1 UNL1 0.000
    10 C      -8.765674    -2.027751     0.901809 C          1 UNL1 0.000
    11 C      -8.207522    -3.176594     1.456934 C          1 UNL1 0.000
    12 C      -6.981184    -3.103190     2.109562 C          1 UNL1 0.000
    13 C      -6.317885    -1.877582     2.213028 C          1 UNL1 0.000
    14 C      -4.730247     0.544328     1.737567 C          1 UNL1 0.000
    15 C      -3.976624     0.918052     2.859409 C          1 UNL1 0.000
    16 C      -2.582464     0.818768     2.838417 C          1 UNL1 0.000
    17 C      -1.921484     0.380333     1.685482 C          1 UNL1 0.000
    18 C      -2.669216     0.037884     0.553064 C          1 UNL1 0.000
    19 C      -4.063847     0.109414     0.582342 C          1 UNL1 0.000
    20 C      -0.466794     0.206379     1.709441 C          1 UNL1 0.000
    21 C       0.360961     0.788202     0.826810 C          1 UNL1 0.000
    22 H      -8.708383     5.247209     2.313684 H          1 UNL1 0.000
    23 H      -9.696266     3.183745     3.275724 H          1 UNL1 0.000
    24 H      -8.525071     1.033681     3.075386 H          1 UNL1 0.000
    25 H      -5.357893     2.993200     0.887597 H          1 UNL1 0.000
    26 H      -6.525772     5.136023     1.137483 H          1 UNL1 0.000
    27 H      -8.544714     0.072376     0.535053 H          1 UNL1 0.000
    28 H      -9.718998    -2.083703     0.382970 H          1 UNL1 0.000
    29 H      -8.725029    -4.128907     1.377117 H          1 UNL1 0.000
    30 H      -6.537353    -3.996123     2.541929 H          1 UNL1 0.000
    31 H      -5.367738    -1.849513     2.741172 H          1 UNL1 0.000
    32 H      -4.480434     1.244334     3.765939 H          1 UNL1 0.000
    33 H      -2.019621     1.076974     3.732565 H          1 UNL1 0.000
    34 H      -2.177326    -0.316117    -0.349809 H          1 UNL1 0.000
    35 H      -4.636503    -0.177098    -0.296405 H          1 UNL1 0.000
    36 H      -0.087258    -0.425143     2.508734 H          1 UNL1 0.000
    37 H      -0.058807     1.460713     0.079631 H          1 UNL1 0.000
    38 C       1.783642     0.622253     0.802094 C          1 UNL1 0.000
    39 C       2.439400    -0.534361     1.172618 C          1 UNL1 0.000
    40 S       4.139044    -0.399584     1.012463 S          1 UNL1 0.000
    41 C       4.009783     1.205652     0.437354 C          1 UNL1 0.000
    42 C       2.698924     1.625019     0.360784 C          1 UNL1 0.000
    43 H       2.013306    -1.465135     1.521414 H          1 UNL1 0.000
    44 H       4.900145     1.763001     0.181237 H          1 UNL1 0.000
    45 H       2.417611     2.613760     0.018984 H          1 UNL1 0.000
@<TRIPOS>BOND
     1      1      2   2
     2      2      3   1
     3      3      4   2
     4      4      5   1
     5      5      6   2
     6      6      1   1
     7      4      7   1
     8      7      8   1
     9      8      9   2
    10      9     10   1
    11     10     11   2
    12     11     12   1
    13     12     13   2
    14     13      8   1
    15     14     15   2
    16     15     16   1
    17     16     17   2
    18     17     18   1
    19     18     19   2
    20     19     14   1
    21     17     20   1
    22     20     21   2
    23      7     14   1
    24      1     22   1
    25      2     23   1
    26      3     24   1
    27      5     25   1
    28      6     26   1
    29      9     27   1
    30     10     28   1
    31     11     29   1
    32     12     30   1
    33     13     31   1
    34     15     32   1
    35     16     33   1
    36     18     34   1
    37     19     35   1
    38     20     36   1
    39     21     37   1
    40     38     39   2
    41     39     40   1
    42     40     41   1
    43     41     42   2
    44     42     38   1
    45     39     43   1
    46     41     44   1
    47     42     45   1
    48     21     38   1
