# Produced with molli package
@<TRIPOS>MOLECULE
A_7_T
51 54 0 0 0
SMALL
USER_CHARGES

@<TRIPOS>ATOM
     1 C      -8.342462     4.185702     1.452310 C          1 UNL1 0.000
     2 C      -8.801251     3.028145     0.828124 C          1 UNL1 0.000
     3 C      -8.076406     1.838120     0.938429 C          1 UNL1 0.000
     4 C      -6.880741     1.784743     1.675991 C          1 UNL1 0.000
     5 C      -6.433880     2.966573     2.294738 C          1 UNL1 0.000
     6 C      -7.158921     4.156046     2.185277 C          1 UNL1 0.000
     7 N      -6.128621     0.557596     1.792780 N          1 UNL1 0.000
     8 C      -6.803692    -0.707155     1.966092 C          1 UNL1 0.000
     9 C      -7.961625    -0.812064     2.757189 C          1 UNL1 0.000
    10 C      -8.614660    -2.037056     2.920847 C          1 UNL1 0.000
    11 C      -8.120086    -3.180279     2.298249 C          1 UNL1 0.000
    12 C      -6.972760    -3.100775     1.513384 C          1 UNL1 0.000
    13 C      -6.320267    -1.875677     1.349636 C          1 UNL1 0.000
    14 C      -4.688066     0.600753     1.741412 C          1 UNL1 0.000
    15 C      -3.911114    -0.106372     2.673903 C          1 UNL1 0.000
    16 C      -2.514050    -0.048634     2.634260 C          1 UNL1 0.000
    17 C      -1.865772     0.701357     1.649290 C          1 UNL1 0.000
    18 C      -2.629300     1.406579     0.713690 C          1 UNL1 0.000
    19 C      -4.025951     1.359604     0.762068 C          1 UNL1 0.000
    20 C      -0.403040     0.769453     1.638081 C          1 UNL1 0.000
    21 C       0.324482     0.389717     0.577672 C          1 UNL1 0.000
    22 H      -8.906470     5.110811     1.366861 H          1 UNL1 0.000
    23 H      -9.721828     3.049159     0.250881 H          1 UNL1 0.000
    24 H      -8.443090     0.951354     0.426818 H          1 UNL1 0.000
    25 H      -5.521521     2.962705     2.886595 H          1 UNL1 0.000
    26 H      -6.798602     5.056142     2.676357 H          1 UNL1 0.000
    27 H      -8.355484     0.062535     3.269571 H          1 UNL1 0.000
    28 H      -9.507142    -2.095802     3.538238 H          1 UNL1 0.000
    29 H      -8.627982    -4.132708     2.425229 H          1 UNL1 0.000
    30 H      -6.584642    -3.989859     1.023431 H          1 UNL1 0.000
    31 H      -5.436777    -1.835433     0.716803 H          1 UNL1 0.000
    32 H      -4.393649    -0.689561     3.454688 H          1 UNL1 0.000
    33 H      -1.939214    -0.597921     3.376204 H          1 UNL1 0.000
    34 H      -2.145756     2.005992    -0.054005 H          1 UNL1 0.000
    35 H      -4.598691     1.909716     0.019188 H          1 UNL1 0.000
    36 H       0.065953     1.124452     2.552335 H          1 UNL1 0.000
    37 H      -0.141988    -0.012527    -0.318254 H          1 UNL1 0.000
    38 C       1.788185     0.457915     0.569103 C          1 UNL1 0.000
    39 C       2.530973    -0.689270     0.275614 C          1 UNL1 0.000
    40 C       3.927708    -0.639105     0.245403 C          1 UNL1 0.000
    41 C       4.601251     0.559998     0.506170 C          1 UNL1 0.000
    42 C       3.855676     1.713634     0.772954 C          1 UNL1 0.000
    43 C       2.459554     1.661904     0.808839 C          1 UNL1 0.000
    44 C       6.098429     0.619202     0.435691 C          1 UNL1 0.000
    45 H       2.029109    -1.633107     0.076106 H          1 UNL1 0.000
    46 H       4.486402    -1.543817     0.016934 H          1 UNL1 0.000
    47 H       4.355539     2.662521     0.952855 H          1 UNL1 0.000
    48 H       1.900669     2.572088     1.012887 H          1 UNL1 0.000
    49 H       6.488678     1.437825     1.049386 H          1 UNL1 0.000
    50 H       6.418406     0.772354    -0.599481 H          1 UNL1 0.000
    51 H       6.541288    -0.308650     0.812288 H          1 UNL1 0.000
@<TRIPOS>BOND
     1      1      2   2
     2      2      3   1
     3      3      4   2
     4      4      5   1
     5      5      6   2
     6      6      1   1
     7      4      7   1
     8      7      8   1
     9      8      9   2
    10      9     10   1
    11     10     11   2
    12     11     12   1
    13     12     13   2
    14     13      8   1
    15     14     15   2
    16     15     16   1
    17     16     17   2
    18     17     18   1
    19     18     19   2
    20     19     14   1
    21     17     20   1
    22     20     21   2
    23      7     14   1
    24      1     22   1
    25      2     23   1
    26      3     24   1
    27      5     25   1
    28      6     26   1
    29      9     27   1
    30     10     28   1
    31     11     29   1
    32     12     30   1
    33     13     31   1
    34     15     32   1
    35     16     33   1
    36     18     34   1
    37     19     35   1
    38     20     36   1
    39     21     37   1
    40     38     39   2
    41     39     40   1
    42     40     41   2
    43     41     42   1
    44     42     43   2
    45     43     38   1
    46     41     44   1
    47     39     45   1
    48     40     46   1
    49     42     47   1
    50     43     48   1
    51     44     49   1
    52     44     50   1
    53     44     51   1
    54     21     38   1
