# Produced with molli package
@<TRIPOS>MOLECULE
A_7_P
52 55 0 0 0
SMALL
USER_CHARGES

@<TRIPOS>ATOM
     1 C      -8.123302     4.226757     2.222696 C          1 UNL1 0.000
     2 C      -8.692965     3.060795     2.726686 C          1 UNL1 0.000
     3 C      -8.018651     1.840574     2.608796 C          1 UNL1 0.000
     4 C      -6.768272     1.757339     1.971262 C          1 UNL1 0.000
     5 C      -6.208423     2.954268     1.482366 C          1 UNL1 0.000
     6 C      -6.878037     4.175262     1.605131 C          1 UNL1 0.000
     7 N      -6.072360     0.498657     1.830230 N          1 UNL1 0.000
     8 C      -6.765229    -0.759382     1.688189 C          1 UNL1 0.000
     9 C      -7.961216    -0.864905     0.958017 C          1 UNL1 0.000
    10 C      -8.622506    -2.090510     0.830454 C          1 UNL1 0.000
    11 C      -8.095153    -3.234944     1.423653 C          1 UNL1 0.000
    12 C      -6.903553    -3.157619     2.138595 C          1 UNL1 0.000
    13 C      -6.243264    -1.932563     2.265456 C          1 UNL1 0.000
    14 C      -4.637104     0.497758     1.760378 C          1 UNL1 0.000
    15 C      -3.867058     0.939435     2.842945 C          1 UNL1 0.000
    16 C      -2.470784     0.959059     2.757551 C          1 UNL1 0.000
    17 C      -1.812313     0.559635     1.584646 C          1 UNL1 0.000
    18 C      -2.589350     0.116951     0.505699 C          1 UNL1 0.000
    19 C      -3.984650     0.073934     0.596021 C          1 UNL1 0.000
    20 C      -0.340055     0.648483     1.543033 C          1 UNL1 0.000
    21 C       0.443350     0.282478     0.518855 C          1 UNL1 0.000
    22 H      -8.646869     5.174613     2.314255 H          1 UNL1 0.000
    23 H      -9.662140     3.097593     3.217085 H          1 UNL1 0.000
    24 H      -8.477861     0.952847     3.036603 H          1 UNL1 0.000
    25 H      -5.245008     2.947701     0.978044 H          1 UNL1 0.000
    26 H      -6.424622     5.081717     1.212655 H          1 UNL1 0.000
    27 H      -8.379943     0.007830     0.463021 H          1 UNL1 0.000
    28 H      -9.547248    -2.149554     0.262565 H          1 UNL1 0.000
    29 H      -8.609834    -4.187099     1.325357 H          1 UNL1 0.000
    30 H      -6.485560    -4.047583     2.601696 H          1 UNL1 0.000
    31 H      -5.320817    -1.896715     2.840341 H          1 UNL1 0.000
    32 H      -4.355279     1.258440     3.760445 H          1 UNL1 0.000
    33 H      -1.904543     1.298767     3.622324 H          1 UNL1 0.000
    34 H      -2.134649    -0.192917    -0.429996 H          1 UNL1 0.000
    35 H      -4.566868    -0.259586    -0.259661 H          1 UNL1 0.000
    36 H       0.125828     1.049518     2.443155 H          1 UNL1 0.000
    37 H       0.052214    -0.147233    -0.397932 H          1 UNL1 0.000
    38 C       1.902704     0.417250     0.561077 C          1 UNL1 0.000
    39 C       2.700029    -0.717294     0.375307 C          1 UNL1 0.000
    40 C       4.093152    -0.609247     0.373062 C          1 UNL1 0.000
    41 C       4.691386     0.639861     0.534375 C          1 UNL1 0.000
    42 C       3.905583     1.770545     0.747196 C          1 UNL1 0.000
    43 C       2.513035     1.663050     0.748727 C          1 UNL1 0.000
    44 O       6.047977     0.817057     0.552360 O          1 UNL1 0.000
    45 C       6.679514     0.284436    -0.610749 C          1 UNL1 0.000
    46 H       2.241894    -1.695184     0.245555 H          1 UNL1 0.000
    47 H       4.693813    -1.506195     0.262522 H          1 UNL1 0.000
    48 H       4.376682     2.738365     0.894178 H          1 UNL1 0.000
    49 H       1.911310     2.558203     0.886071 H          1 UNL1 0.000
    50 H       7.708770     0.655104    -0.630435 H          1 UNL1 0.000
    51 H       6.181693     0.624928    -1.526071 H          1 UNL1 0.000
    52 H       6.719404    -0.808621    -0.576289 H          1 UNL1 0.000
@<TRIPOS>BOND
     1      1      2   2
     2      2      3   1
     3      3      4   2
     4      4      5   1
     5      5      6   2
     6      6      1   1
     7      4      7   1
     8      7      8   1
     9      8      9   2
    10      9     10   1
    11     10     11   2
    12     11     12   1
    13     12     13   2
    14     13      8   1
    15     14     15   2
    16     15     16   1
    17     16     17   2
    18     17     18   1
    19     18     19   2
    20     19     14   1
    21     17     20   1
    22     20     21   2
    23      7     14   1
    24      1     22   1
    25      2     23   1
    26      3     24   1
    27      5     25   1
    28      6     26   1
    29      9     27   1
    30     10     28   1
    31     11     29   1
    32     12     30   1
    33     13     31   1
    34     15     32   1
    35     16     33   1
    36     18     34   1
    37     19     35   1
    38     20     36   1
    39     21     37   1
    40     38     39   2
    41     39     40   1
    42     40     41   2
    43     41     42   1
    44     42     43   2
    45     43     38   1
    46     44     45   1
    47     41     44   1
    48     39     46   1
    49     40     47   1
    50     42     48   1
    51     43     49   1
    52     45     50   1
    53     45     51   1
    54     45     52   1
    55     21     38   1
