# Produced with molli package
@<TRIPOS>MOLECULE
A_7_Q
46 49 0 0 0
SMALL
USER_CHARGES

@<TRIPOS>ATOM
     1 C      -8.188204     4.244093     2.186172 C          1 UNL1 0.000
     2 C      -8.685456     3.077553     2.761811 C          1 UNL1 0.000
     3 C      -7.996968     1.869837     2.608951 C          1 UNL1 0.000
     4 C      -6.802518     1.803980     1.870809 C          1 UNL1 0.000
     5 C      -6.316490     2.998075     1.304265 C          1 UNL1 0.000
     6 C      -7.002171     4.205844     1.459295 C          1 UNL1 0.000
     7 N      -6.084526     0.560994     1.706045 N          1 UNL1 0.000
     8 C      -6.771203    -0.701794     1.574387 C          1 UNL1 0.000
     9 C      -7.988048    -0.806146     0.878137 C          1 UNL1 0.000
    10 C      -8.651480    -2.031693     0.764096 C          1 UNL1 0.000
    11 C      -8.106753    -3.177216     1.338783 C          1 UNL1 0.000
    12 C      -6.896718    -3.100428     2.022561 C          1 UNL1 0.000
    13 C      -6.234112    -1.875103     2.136235 C          1 UNL1 0.000
    14 C      -4.646458     0.586132     1.658297 C          1 UNL1 0.000
    15 C      -3.907649     1.189271     2.685419 C          1 UNL1 0.000
    16 C      -2.511767     1.241958     2.622883 C          1 UNL1 0.000
    17 C      -1.820057     0.701794     1.529931 C          1 UNL1 0.000
    18 C      -2.559026     0.103443     0.501311 C          1 UNL1 0.000
    19 C      -3.955303     0.032324     0.571548 C          1 UNL1 0.000
    20 C      -0.356021     0.858025     1.481697 C          1 UNL1 0.000
    21 C       0.482083     0.082746     0.773125 C          1 UNL1 0.000
    22 H      -8.723173     5.182532     2.305629 H          1 UNL1 0.000
    23 H      -9.608121     3.105039     3.335494 H          1 UNL1 0.000
    24 H      -8.394638     0.979221     3.089465 H          1 UNL1 0.000
    25 H      -5.401607     2.994154     0.716277 H          1 UNL1 0.000
    26 H      -6.608606     5.112735     1.007789 H          1 UNL1 0.000
    27 H      -8.423281     0.068835     0.401383 H          1 UNL1 0.000
    28 H      -9.592024    -2.089284     0.222583 H          1 UNL1 0.000
    29 H      -8.623275    -4.129496     1.251767 H          1 UNL1 0.000
    30 H      -6.466847    -3.991304     2.472922 H          1 UNL1 0.000
    31 H      -5.298961    -1.839422     2.690260 H          1 UNL1 0.000
    32 H      -4.420578     1.613480     3.545419 H          1 UNL1 0.000
    33 H      -1.973351     1.713821     3.441920 H          1 UNL1 0.000
    34 H      -2.068718    -0.298981    -0.381187 H          1 UNL1 0.000
    35 H      -4.507650    -0.423946    -0.246747 H          1 UNL1 0.000
    36 H       0.032952     1.665424     2.097850 H          1 UNL1 0.000
    37 H       0.117942    -0.763935     0.197929 H          1 UNL1 0.000
    38 C       1.939686     0.240745     0.724455 C          1 UNL1 0.000
    39 N       2.626021    -0.886531     0.414449 N          1 UNL1 0.000
    40 C       3.971938    -0.760381     0.340215 C          1 UNL1 0.000
    41 C       4.620947     0.443473     0.551418 C          1 UNL1 0.000
    42 N       3.953447     1.580605     0.841133 N          1 UNL1 0.000
    43 C       2.603938     1.451119     0.915941 C          1 UNL1 0.000
    44 H       4.520278    -1.664778     0.102831 H          1 UNL1 0.000
    45 H       5.699891     0.525877     0.489571 H          1 UNL1 0.000
    46 H       2.071429     2.371622     1.126491 H          1 UNL1 0.000
@<TRIPOS>BOND
     1      1      2   2
     2      2      3   1
     3      3      4   2
     4      4      5   1
     5      5      6   2
     6      6      1   1
     7      4      7   1
     8      7      8   1
     9      8      9   2
    10      9     10   1
    11     10     11   2
    12     11     12   1
    13     12     13   2
    14     13      8   1
    15     14     15   2
    16     15     16   1
    17     16     17   2
    18     17     18   1
    19     18     19   2
    20     19     14   1
    21     17     20   1
    22     20     21   2
    23      7     14   1
    24      1     22   1
    25      2     23   1
    26      3     24   1
    27      5     25   1
    28      6     26   1
    29      9     27   1
    30     10     28   1
    31     11     29   1
    32     12     30   1
    33     13     31   1
    34     15     32   1
    35     16     33   1
    36     18     34   1
    37     19     35   1
    38     20     36   1
    39     21     37   1
    40     38     39   2
    41     39     40   1
    42     40     41   2
    43     41     42   1
    44     42     43   2
    45     43     38   1
    46     40     44   1
    47     41     45   1
    48     43     46   1
    49     21     38   1
