# Produced with molli package
@<TRIPOS>MOLECULE
A_7_S
53 56 0 0 0
SMALL
USER_CHARGES

@<TRIPOS>ATOM
     1 C      -8.118608     4.282167     1.662068 C          1 UNL1 0.000
     2 C      -8.742461     3.138629     1.172721 C          1 UNL1 0.000
     3 C      -8.079309     1.904858     1.200985 C          1 UNL1 0.000
     4 C      -6.793658     1.776287     1.753970 C          1 UNL1 0.000
     5 C      -6.177197     2.958526     2.216645 C          1 UNL1 0.000
     6 C      -6.828921     4.195212     2.171791 C          1 UNL1 0.000
     7 N      -6.099851     0.505787     1.823732 N          1 UNL1 0.000
     8 C      -6.759542    -0.780608     1.930654 C          1 UNL1 0.000
     9 C      -8.044183    -0.926063     2.483089 C          1 UNL1 0.000
    10 C      -8.679597    -2.173451     2.542752 C          1 UNL1 0.000
    11 C      -8.027518    -3.315364     2.089041 C          1 UNL1 0.000
    12 C      -6.737839    -3.212189     1.582893 C          1 UNL1 0.000
    13 C      -6.115010    -1.961825     1.504274 C          1 UNL1 0.000
    14 C      -4.663140     0.527586     1.754396 C          1 UNL1 0.000
    15 C      -3.891365     0.350477     2.909670 C          1 UNL1 0.000
    16 C      -2.495032     0.393871     2.838420 C          1 UNL1 0.000
    17 C      -1.843028     0.581763     1.610585 C          1 UNL1 0.000
    18 C      -2.622335     0.758104     0.458339 C          1 UNL1 0.000
    19 C      -4.018596     0.736987     0.528723 C          1 UNL1 0.000
    20 C      -0.371144     0.641104     1.592415 C          1 UNL1 0.000
    21 C       0.391179     0.360376     0.523747 C          1 UNL1 0.000
    22 H      -8.631399     5.239942     1.637122 H          1 UNL1 0.000
    23 H      -9.745855     3.203969     0.759936 H          1 UNL1 0.000
    24 H      -8.583214     1.046530     0.765207 H          1 UNL1 0.000
    25 H      -5.174622     2.933577     2.636020 H          1 UNL1 0.000
    26 H      -6.324826     5.084925     2.540198 H          1 UNL1 0.000
    27 H      -8.572555    -0.069868     2.893008 H          1 UNL1 0.000
    28 H      -9.683747    -2.249512     2.951928 H          1 UNL1 0.000
    29 H      -8.518309    -4.283575     2.139033 H          1 UNL1 0.000
    30 H      -6.211148    -4.100045     1.242766 H          1 UNL1 0.000
    31 H      -5.111385    -1.928407     1.087941 H          1 UNL1 0.000
    32 H      -4.381571     0.203366     3.868809 H          1 UNL1 0.000
    33 H      -1.922781     0.275107     3.755913 H          1 UNL1 0.000
    34 H      -2.160230     0.926747    -0.510447 H          1 UNL1 0.000
    35 H      -4.608140     0.871665    -0.374760 H          1 UNL1 0.000
    36 H       0.101640     0.912829     2.534667 H          1 UNL1 0.000
    37 H      -0.028631     0.046557    -0.426929 H          1 UNL1 0.000
    38 C       1.852516     0.421581     0.572064 C          1 UNL1 0.000
    39 C       2.521686     1.645895     0.633030 C          1 UNL1 0.000
    40 C       3.919989     1.681821     0.641829 C          1 UNL1 0.000
    41 C       4.669363     0.496170     0.591016 C          1 UNL1 0.000
    42 C       3.994266    -0.728098     0.530374 C          1 UNL1 0.000
    43 C       2.593936    -0.762404     0.523737 C          1 UNL1 0.000
    44 C       6.161163     0.609343     0.591806 C          1 UNL1 0.000
    45 C       7.023959    -0.625738     0.544356 C          1 UNL1 0.000
    46 O       6.682102     1.725737     0.597702 O          1 UNL1 0.000
    47 H       1.964690     2.580055     0.659829 H          1 UNL1 0.000
    48 H       4.423093     2.647127     0.679946 H          1 UNL1 0.000
    49 H       4.519506    -1.675664     0.480309 H          1 UNL1 0.000
    50 H       2.084396    -1.723171     0.479601 H          1 UNL1 0.000
    51 H       7.314212    -0.824054    -0.490634 H          1 UNL1 0.000
    52 H       6.539460    -1.503691     0.971022 H          1 UNL1 0.000
    53 H       7.922302    -0.445549     1.143732 H          1 UNL1 0.000
@<TRIPOS>BOND
     1      1      2   2
     2      2      3   1
     3      3      4   2
     4      4      5   1
     5      5      6   2
     6      6      1   1
     7      4      7   1
     8      7      8   1
     9      8      9   2
    10      9     10   1
    11     10     11   2
    12     11     12   1
    13     12     13   2
    14     13      8   1
    15     14     15   2
    16     15     16   1
    17     16     17   2
    18     17     18   1
    19     18     19   2
    20     19     14   1
    21     17     20   1
    22     20     21   2
    23      7     14   1
    24      1     22   1
    25      2     23   1
    26      3     24   1
    27      5     25   1
    28      6     26   1
    29      9     27   1
    30     10     28   1
    31     11     29   1
    32     12     30   1
    33     13     31   1
    34     15     32   1
    35     16     33   1
    36     18     34   1
    37     19     35   1
    38     20     36   1
    39     21     37   1
    40     38     39   2
    41     39     40   1
    42     40     41   2
    43     41     42   1
    44     42     43   2
    45     43     38   1
    46     41     44   1
    47     44     45   1
    48     44     46   2
    49     39     47   1
    50     40     48   1
    51     42     49   1
    52     43     50   1
    53     45     51   1
    54     45     52   1
    55     45     53   1
    56     21     38   1
