# Produced with molli package
@<TRIPOS>MOLECULE
A_7_L
52 56 0 0 0
SMALL
USER_CHARGES

@<TRIPOS>ATOM
     1 C      -8.060209     4.306836     1.432948 C          1 UNL1 0.000
     2 C      -8.629585     3.163476     0.878063 C          1 UNL1 0.000
     3 C      -7.983769     1.928500     0.996385 C          1 UNL1 0.000
     4 C      -6.761443     1.811465     1.679993 C          1 UNL1 0.000
     5 C      -6.199334     2.983858     2.220918 C          1 UNL1 0.000
     6 C      -6.843067     4.218591     2.101725 C          1 UNL1 0.000
     7 N      -6.082105     0.543743     1.809165 N          1 UNL1 0.000
     8 C      -6.791825    -0.706079     1.954469 C          1 UNL1 0.000
     9 C      -8.017865    -0.781488     2.638281 C          1 UNL1 0.000
    10 C      -8.707355    -1.992865     2.757996 C          1 UNL1 0.000
    11 C      -8.177230    -3.157001     2.208318 C          1 UNL1 0.000
    12 C      -6.955648    -3.112931     1.544216 C          1 UNL1 0.000
    13 C      -6.270206    -1.900926     1.421035 C          1 UNL1 0.000
    14 C      -4.647664     0.524558     1.722271 C          1 UNL1 0.000
    15 C      -3.871110     0.062132     2.791591 C          1 UNL1 0.000
    16 C      -2.475048     0.043148     2.697370 C          1 UNL1 0.000
    17 C      -1.823170     0.464083     1.527920 C          1 UNL1 0.000
    18 C      -2.607603     0.917046     0.458653 C          1 UNL1 0.000
    19 C      -4.002013     0.959504     0.558177 C          1 UNL1 0.000
    20 C      -0.350468     0.397783     1.483109 C          1 UNL1 0.000
    21 C       0.425638     0.819600     0.471669 C          1 UNL1 0.000
    22 H      -8.561894     5.266445     1.340356 H          1 UNL1 0.000
    23 H      -9.574979     3.230517     0.346203 H          1 UNL1 0.000
    24 H      -8.436707     1.057718     0.528939 H          1 UNL1 0.000
    25 H      -5.255624     2.941532     2.759826 H          1 UNL1 0.000
    26 H      -6.391490     5.107572     2.534194 H          1 UNL1 0.000
    27 H      -8.444512     0.105562     3.099982 H          1 UNL1 0.000
    28 H      -9.657424    -2.024405     3.284786 H          1 UNL1 0.000
    29 H      -8.713221    -4.097870     2.300221 H          1 UNL1 0.000
    30 H      -6.533648    -4.018050     1.115357 H          1 UNL1 0.000
    31 H      -5.326797    -1.897651     0.880144 H          1 UNL1 0.000
    32 H      -4.353435    -0.266988     3.708705 H          1 UNL1 0.000
    33 H      -1.903298    -0.306234     3.554493 H          1 UNL1 0.000
    34 H      -2.158393     1.241300    -0.474952 H          1 UNL1 0.000
    35 H      -4.588960     1.307933    -0.288287 H          1 UNL1 0.000
    36 H       0.125122    -0.019862     2.369366 H          1 UNL1 0.000
    37 H       0.025983     1.273441    -0.428516 H          1 UNL1 0.000
    38 C       1.888725     0.736741     0.520986 C          1 UNL1 0.000
    39 C       2.542061    -0.495948     0.618060 C          1 UNL1 0.000
    40 C       3.939577    -0.579025     0.635308 C          1 UNL1 0.000
    41 C       4.659587     0.617942     0.552027 C          1 UNL1 0.000
    42 C       4.040335     1.863529     0.452901 C          1 UNL1 0.000
    43 C       2.633489     1.922658     0.431712 C          1 UNL1 0.000
    44 N       6.018290     0.841236     0.544507 N          1 UNL1 0.000
    45 C       6.277439     2.183153     0.450177 C          1 UNL1 0.000
    46 C       5.070663     2.841685     0.392091 C          1 UNL1 0.000
    47 H       1.962467    -1.415710     0.670126 H          1 UNL1 0.000
    48 H       4.438231    -1.539970     0.706129 H          1 UNL1 0.000
    49 H       2.135135     2.884700     0.354423 H          1 UNL1 0.000
    50 H       6.718279     0.114742     0.601266 H          1 UNL1 0.000
    51 H       7.293824     2.552405     0.432092 H          1 UNL1 0.000
    52 H       4.938355     3.912744     0.313786 H          1 UNL1 0.000
@<TRIPOS>BOND
     1      1      2   2
     2      2      3   1
     3      3      4   2
     4      4      5   1
     5      5      6   2
     6      6      1   1
     7      4      7   1
     8      7      8   1
     9      8      9   2
    10      9     10   1
    11     10     11   2
    12     11     12   1
    13     12     13   2
    14     13      8   1
    15     14     15   2
    16     15     16   1
    17     16     17   2
    18     17     18   1
    19     18     19   2
    20     19     14   1
    21     17     20   1
    22     20     21   2
    23      7     14   1
    24      1     22   1
    25      2     23   1
    26      3     24   1
    27      5     25   1
    28      6     26   1
    29      9     27   1
    30     10     28   1
    31     11     29   1
    32     12     30   1
    33     13     31   1
    34     15     32   1
    35     16     33   1
    36     18     34   1
    37     19     35   1
    38     20     36   1
    39     21     37   1
    40     38     39   2
    41     39     40   1
    42     40     41   2
    43     41     42   1
    44     42     43   2
    45     43     38   1
    46     41     44   1
    47     44     45   1
    48     45     46   2
    49     46     42   1
    50     39     47   1
    51     40     48   1
    52     43     49   1
    53     44     50   1
    54     45     51   1
    55     46     52   1
    56     21     38   1
