# Produced with molli package
@<TRIPOS>MOLECULE
A_7_M
49 52 0 0 0
SMALL
USER_CHARGES

@<TRIPOS>ATOM
     1 C      -8.086281     4.251353     1.680043 C          1 UNL1 0.000
     2 C      -8.742380     3.108599     1.236365 C          1 UNL1 0.000
     3 C      -8.093055     1.865876     1.257787 C          1 UNL1 0.000
     4 C      -6.796471     1.718742     1.779760 C          1 UNL1 0.000
     5 C      -6.143787     2.906525     2.178323 C          1 UNL1 0.000
     6 C      -6.776141     4.154303     2.129123 C          1 UNL1 0.000
     7 N      -6.124831     0.434099     1.881040 N          1 UNL1 0.000
     8 C      -6.793149    -0.853164     1.991778 C          1 UNL1 0.000
     9 C      -8.127070    -0.990610     2.413481 C          1 UNL1 0.000
    10 C      -8.768931    -2.237469     2.442477 C          1 UNL1 0.000
    11 C      -8.072271    -3.394144     2.112912 C          1 UNL1 0.000
    12 C      -6.730871    -3.305532     1.768315 C          1 UNL1 0.000
    13 C      -6.104992    -2.054724     1.706855 C          1 UNL1 0.000
    14 C      -4.685757     0.438066     1.816659 C          1 UNL1 0.000
    15 C      -3.915792     0.427584     2.986586 C          1 UNL1 0.000
    16 C      -2.517474     0.433761     2.912435 C          1 UNL1 0.000
    17 C      -1.858979     0.425598     1.672484 C          1 UNL1 0.000
    18 C      -2.640724     0.410281     0.507444 C          1 UNL1 0.000
    19 C      -4.037436     0.434681     0.576035 C          1 UNL1 0.000
    20 C      -0.381972     0.410568     1.653325 C          1 UNL1 0.000
    21 C       0.377107     0.608168     0.563654 C          1 UNL1 0.000
    22 H      -8.587629     5.215221     1.661511 H          1 UNL1 0.000
    23 H      -9.761144     3.180096     0.863880 H          1 UNL1 0.000
    24 H      -8.624952     1.017423     0.837827 H          1 UNL1 0.000
    25 H      -5.123202     2.884301     2.550301 H          1 UNL1 0.000
    26 H      -6.240406     5.044024     2.449815 H          1 UNL1 0.000
    27 H      -8.701414    -0.131739     2.745983 H          1 UNL1 0.000
    28 H      -9.814780    -2.299973     2.732376 H          1 UNL1 0.000
    29 H      -8.567212    -4.360984     2.140350 H          1 UNL1 0.000
    30 H      -6.163939    -4.204333     1.539848 H          1 UNL1 0.000
    31 H      -5.056420    -2.045932     1.421579 H          1 UNL1 0.000
    32 H      -4.408477     0.432442     3.955730 H          1 UNL1 0.000
    33 H      -1.950046     0.448023     3.840583 H          1 UNL1 0.000
    34 H      -2.185825     0.372953    -0.477740 H          1 UNL1 0.000
    35 H      -4.624373     0.424359    -0.339106 H          1 UNL1 0.000
    36 H       0.101327     0.246377     2.615114 H          1 UNL1 0.000
    37 H      -0.044790     0.806069    -0.416170 H          1 UNL1 0.000
    38 C       1.840152     0.612874     0.600196 C          1 UNL1 0.000
    39 C       2.564327    -0.581892     0.669269 C          1 UNL1 0.000
    40 C       3.962205    -0.560446     0.615240 C          1 UNL1 0.000
    41 C       4.642365     0.656728     0.498004 C          1 UNL1 0.000
    42 C       3.919658     1.852932     0.451619 C          1 UNL1 0.000
    43 C       2.523227     1.829758     0.501248 C          1 UNL1 0.000
    44 C       6.074090     0.679103     0.407268 C          1 UNL1 0.000
    45 N       7.230227     0.700165     0.324848 N          1 UNL1 0.000
    46 H       2.046178    -1.536092     0.740277 H          1 UNL1 0.000
    47 H       4.512502    -1.499061     0.649982 H          1 UNL1 0.000
    48 H       4.434226     2.807934     0.363016 H          1 UNL1 0.000
    49 H       1.970768     2.765944     0.449860 H          1 UNL1 0.000
@<TRIPOS>BOND
     1      1      2   2
     2      2      3   1
     3      3      4   2
     4      4      5   1
     5      5      6   2
     6      6      1   1
     7      4      7   1
     8      7      8   1
     9      8      9   2
    10      9     10   1
    11     10     11   2
    12     11     12   1
    13     12     13   2
    14     13      8   1
    15     14     15   2
    16     15     16   1
    17     16     17   2
    18     17     18   1
    19     18     19   2
    20     19     14   1
    21     17     20   1
    22     20     21   2
    23      7     14   1
    24      1     22   1
    25      2     23   1
    26      3     24   1
    27      5     25   1
    28      6     26   1
    29      9     27   1
    30     10     28   1
    31     11     29   1
    32     12     30   1
    33     13     31   1
    34     15     32   1
    35     16     33   1
    36     18     34   1
    37     19     35   1
    38     20     36   1
    39     21     37   1
    40     38     39   2
    41     39     40   1
    42     40     41   2
    43     41     42   1
    44     42     43   2
    45     43     38   1
    46     44     45   3
    47     41     44   1
    48     39     46   1
    49     40     47   1
    50     42     48   1
    51     43     49   1
    52     21     38   1
