# Produced with molli package
@<TRIPOS>MOLECULE
A_7_R
49 52 0 0 0
SMALL
USER_CHARGES

@<TRIPOS>ATOM
     1 C      -8.078879     4.224514     1.372926 C          1 UNL1 0.000
     2 C      -8.649104     3.070238     0.842966 C          1 UNL1 0.000
     3 C      -7.994362     1.840151     0.969338 C          1 UNL1 0.000
     4 C      -6.765155     1.735597     1.642772 C          1 UNL1 0.000
     5 C      -6.201671     2.921118     2.154694 C          1 UNL1 0.000
     6 C      -6.851709     4.151827     2.024008 C          1 UNL1 0.000
     7 N      -6.078816     0.472528     1.788241 N          1 UNL1 0.000
     8 C      -6.768279    -0.791820     1.919019 C          1 UNL1 0.000
     9 C      -8.028141    -0.888603     2.535315 C          1 UNL1 0.000
    10 C      -8.695622    -2.114693     2.636173 C          1 UNL1 0.000
    11 C      -8.107160    -3.275332     2.141973 C          1 UNL1 0.000
    12 C      -6.848958    -3.212971     1.553349 C          1 UNL1 0.000
    13 C      -6.187778    -1.985836     1.445365 C          1 UNL1 0.000
    14 C      -4.643023     0.470836     1.731047 C          1 UNL1 0.000
    15 C      -3.884073     0.143139     2.861444 C          1 UNL1 0.000
    16 C      -2.487394     0.125789     2.793271 C          1 UNL1 0.000
    17 C      -1.822985     0.419353     1.593741 C          1 UNL1 0.000
    18 C      -2.588491     0.726762     0.460715 C          1 UNL1 0.000
    19 C      -3.983642     0.771965     0.532342 C          1 UNL1 0.000
    20 C      -0.354171     0.327030     1.560291 C          1 UNL1 0.000
    21 C       0.439178     0.984470     0.697382 C          1 UNL1 0.000
    22 H      -8.587203     5.179988     1.274126 H          1 UNL1 0.000
    23 H      -9.602695     3.124407     0.324327 H          1 UNL1 0.000
    24 H      -8.449771     0.963199     0.516321 H          1 UNL1 0.000
    25 H      -5.250690     2.895243     2.681408 H          1 UNL1 0.000
    26 H      -6.397321     5.049457     2.435179 H          1 UNL1 0.000
    27 H      -8.502511    -0.007551     2.960011 H          1 UNL1 0.000
    28 H      -9.674356    -2.160387     3.106495 H          1 UNL1 0.000
    29 H      -8.624884    -4.227534     2.220663 H          1 UNL1 0.000
    30 H      -6.378007    -4.115387     1.172291 H          1 UNL1 0.000
    31 H      -5.212396    -1.974609     0.965003 H          1 UNL1 0.000
    32 H      -4.382448    -0.087845     3.799608 H          1 UNL1 0.000
    33 H      -1.923457    -0.121019     3.690440 H          1 UNL1 0.000
    34 H      -2.117820     0.916450    -0.499658 H          1 UNL1 0.000
    35 H      -4.562245     1.005382    -0.358027 H          1 UNL1 0.000
    36 H       0.090809    -0.322868     2.312606 H          1 UNL1 0.000
    37 H       0.013675     1.655353    -0.041407 H          1 UNL1 0.000
    38 C       1.904815     0.871825     0.680680 C          1 UNL1 0.000
    39 N       2.481677     0.013016     1.558254 N          1 UNL1 0.000
    40 C       3.833959    -0.093424     1.542748 C          1 UNL1 0.000
    41 C       4.636684     0.628368     0.676623 C          1 UNL1 0.000
    42 C       4.040521     1.508507    -0.226080 C          1 UNL1 0.000
    43 C       2.650320     1.630526    -0.221122 C          1 UNL1 0.000
    44 N       6.079358     0.461273     0.716259 N          1 UNL1 0.000
    45 O       6.568243    -0.078137     1.719572 O          1 UNL1 0.000
    46 O       6.730154     0.870520    -0.253700 O          1 UNL1 0.000
    47 H       4.238847    -0.798243     2.264927 H          1 UNL1 0.000
    48 H       4.632009     2.097310    -0.922783 H          1 UNL1 0.000
    49 H       2.165488     2.312176    -0.913745 H          1 UNL1 0.000
@<TRIPOS>BOND
     1      1      2   2
     2      2      3   1
     3      3      4   2
     4      4      5   1
     5      5      6   2
     6      6      1   1
     7      4      7   1
     8      7      8   1
     9      8      9   2
    10      9     10   1
    11     10     11   2
    12     11     12   1
    13     12     13   2
    14     13      8   1
    15     14     15   2
    16     15     16   1
    17     16     17   2
    18     17     18   1
    19     18     19   2
    20     19     14   1
    21     17     20   1
    22     20     21   2
    23      7     14   1
    24      1     22   1
    25      2     23   1
    26      3     24   1
    27      5     25   1
    28      6     26   1
    29      9     27   1
    30     10     28   1
    31     11     29   1
    32     12     30   1
    33     13     31   1
    34     15     32   1
    35     16     33   1
    36     18     34   1
    37     19     35   1
    38     20     36   1
    39     21     37   1
    40     38     39   2
    41     39     40   1
    42     40     41   2
    43     41     42   1
    44     42     43   2
    45     43     38   1
    46     44     45   2
    47     44     46   1
    48     41     44   1
    49     40     47   1
    50     42     48   1
    51     43     49   1
    52     21     38   1
