# Produced with molli package
@<TRIPOS>MOLECULE
A_7_O
47 50 0 0 0
SMALL
USER_CHARGES

@<TRIPOS>ATOM
     1 C      -8.036077     4.207365     2.348358 C          1 UNL1 0.000
     2 C      -8.612689     3.059484     2.885001 C          1 UNL1 0.000
     3 C      -7.977238     1.821594     2.741885 C          1 UNL1 0.000
     4 C      -6.759542     1.703701     2.048660 C          1 UNL1 0.000
     5 C      -6.189226     2.881844     1.529660 C          1 UNL1 0.000
     6 C      -6.821522     4.120219     1.675017 C          1 UNL1 0.000
     7 N      -6.107722     0.426611     1.877305 N          1 UNL1 0.000
     8 C      -6.847534    -0.805798     1.736383 C          1 UNL1 0.000
     9 C      -8.070605    -0.856754     1.046045 C          1 UNL1 0.000
    10 C      -8.776123    -2.057306     0.915488 C          1 UNL1 0.000
    11 C      -8.267271    -3.231369     1.465267 C          1 UNL1 0.000
    12 C      -7.051461    -3.208284     2.141816 C          1 UNL1 0.000
    13 C      -6.347958    -2.008031     2.273172 C          1 UNL1 0.000
    14 C      -4.671690     0.374018     1.812880 C          1 UNL1 0.000
    15 C      -3.891510     0.790877     2.901619 C          1 UNL1 0.000
    16 C      -2.497262     0.701813     2.848822 C          1 UNL1 0.000
    17 C      -1.863158     0.226224     1.696623 C          1 UNL1 0.000
    18 C      -2.636579    -0.177418     0.602682 C          1 UNL1 0.000
    19 C      -4.030615    -0.113584     0.663968 C          1 UNL1 0.000
    20 C      -0.403100     0.114850     1.666394 C          1 UNL1 0.000
    21 C       0.352052     0.759739     0.766332 C          1 UNL1 0.000
    22 H      -8.530457     5.168957     2.457721 H          1 UNL1 0.000
    23 H      -9.556863     3.124026     3.419383 H          1 UNL1 0.000
    24 H      -8.439070     0.946690     3.192945 H          1 UNL1 0.000
    25 H      -5.250176     2.843847     0.982726 H          1 UNL1 0.000
    26 H      -6.364244     5.012797     1.256251 H          1 UNL1 0.000
    27 H      -8.477154     0.039359     0.583844 H          1 UNL1 0.000
    28 H      -9.720684    -2.073758     0.378275 H          1 UNL1 0.000
    29 H      -8.815148    -4.164339     1.362984 H          1 UNL1 0.000
    30 H      -6.647064    -4.121307     2.570883 H          1 UNL1 0.000
    31 H      -5.406895    -2.016350     2.818380 H          1 UNL1 0.000
    32 H      -4.373033     1.156334     3.805192 H          1 UNL1 0.000
    33 H      -1.911491     1.005928     3.713283 H          1 UNL1 0.000
    34 H      -2.161925    -0.561429    -0.297004 H          1 UNL1 0.000
    35 H      -4.620792    -0.435119    -0.190575 H          1 UNL1 0.000
    36 H       0.043658    -0.520005     2.429465 H          1 UNL1 0.000
    37 H      -0.110556     1.412602     0.030881 H          1 UNL1 0.000
    38 C       1.817212     0.649964     0.703710 C          1 UNL1 0.000
    39 N       2.403069    -0.313288     1.454212 N          1 UNL1 0.000
    40 C       3.746848    -0.429585     1.378539 C          1 UNL1 0.000
    41 C       4.547237     0.378153     0.590019 C          1 UNL1 0.000
    42 C       3.932835     1.364890    -0.170415 C          1 UNL1 0.000
    43 C       2.547230     1.502744    -0.118366 C          1 UNL1 0.000
    44 H       4.176193    -1.218476     1.989397 H          1 UNL1 0.000
    45 H       5.622394     0.240916     0.569196 H          1 UNL1 0.000
    46 H       4.525556     2.021673    -0.800430 H          1 UNL1 0.000
    47 H       2.056408     2.269139    -0.708960 H          1 UNL1 0.000
@<TRIPOS>BOND
     1      1      2   2
     2      2      3   1
     3      3      4   2
     4      4      5   1
     5      5      6   2
     6      6      1   1
     7      4      7   1
     8      7      8   1
     9      8      9   2
    10      9     10   1
    11     10     11   2
    12     11     12   1
    13     12     13   2
    14     13      8   1
    15     14     15   2
    16     15     16   1
    17     16     17   2
    18     17     18   1
    19     18     19   2
    20     19     14   1
    21     17     20   1
    22     20     21   2
    23      7     14   1
    24      1     22   1
    25      2     23   1
    26      3     24   1
    27      5     25   1
    28      6     26   1
    29      9     27   1
    30     10     28   1
    31     11     29   1
    32     12     30   1
    33     13     31   1
    34     15     32   1
    35     16     33   1
    36     18     34   1
    37     19     35   1
    38     20     36   1
    39     21     37   1
    40     38     39   2
    41     39     40   1
    42     40     41   2
    43     41     42   1
    44     42     43   2
    45     43     38   1
    46     40     44   1
    47     41     45   1
    48     42     46   1
    49     43     47   1
    50     21     38   1
