# Produced with molli package
@<TRIPOS>MOLECULE
A_8_N
42 46 0 0 0
SMALL
USER_CHARGES

@<TRIPOS>ATOM
     1 C      -5.982452     4.365089     0.197022 C          1 UNL1 0.000
     2 C      -6.587487     3.225899    -0.325632 C          1 UNL1 0.000
     3 C      -5.936005     1.988713    -0.259496 C          1 UNL1 0.000
     4 C      -4.677314     1.857416     0.351785 C          1 UNL1 0.000
     5 C      -4.079091     3.031141     0.854257 C          1 UNL1 0.000
     6 C      -4.723563     4.270069     0.779536 C          1 UNL1 0.000
     7 N      -4.000936     0.583551     0.445863 N          1 UNL1 0.000
     8 C      -4.688720    -0.683617     0.549975 C          1 UNL1 0.000
     9 C      -5.941401    -0.799064     1.177782 C          1 UNL1 0.000
    10 C      -6.602170    -2.030193     1.264378 C          1 UNL1 0.000
    11 C      -6.011940    -3.179904     0.748179 C          1 UNL1 0.000
    12 C      -4.760623    -3.100633     0.147941 C          1 UNL1 0.000
    13 C      -4.108501    -1.867447     0.050188 C          1 UNL1 0.000
    14 C      -2.567292     0.577543     0.380055 C          1 UNL1 0.000
    15 C      -1.807963     0.352179     1.558934 C          1 UNL1 0.000
    16 C      -0.396069     0.344499     1.594218 C          1 UNL1 0.000
    17 C       0.391043     0.543251     0.445823 C          1 UNL1 0.000
    18 C      -0.294085     0.759310    -0.783754 C          1 UNL1 0.000
    19 C      -1.807393     0.780027    -0.813348 C          1 UNL1 0.000
    20 N       0.251865     0.949201    -1.997282 N          1 UNL1 0.000
    21 S      -1.001722     1.119548    -3.067542 S          1 UNL1 0.000
    22 N      -2.299350     0.974091    -2.051183 N          1 UNL1 0.000
    23 H      -6.486494     5.326272     0.141657 H          1 UNL1 0.000
    24 H      -7.564793     3.297487    -0.795746 H          1 UNL1 0.000
    25 H      -6.419257     1.128169    -0.715088 H          1 UNL1 0.000
    26 H      -3.103602     2.997187     1.331038 H          1 UNL1 0.000
    27 H      -4.239256     5.157243     1.179183 H          1 UNL1 0.000
    28 H      -6.418228     0.070504     1.622804 H          1 UNL1 0.000
    29 H      -7.577759    -2.088114     1.740025 H          1 UNL1 0.000
    30 H      -6.524359    -4.135885     0.815579 H          1 UNL1 0.000
    31 H      -4.289982    -3.994203    -0.254057 H          1 UNL1 0.000
    32 H      -3.143866    -1.846479    -0.449532 H          1 UNL1 0.000
    33 H      -2.347943     0.195487     2.494228 H          1 UNL1 0.000
    34 H       0.095474     0.184460     2.554876 H          1 UNL1 0.000
    35 C       1.835843     0.535339     0.498528 C          1 UNL1 0.000
    36 C       2.542385    -0.645691     0.608033 C          1 UNL1 0.000
    37 S       4.234003    -0.385787     0.663850 S          1 UNL1 0.000
    38 C       4.033203     1.308464     0.541402 C          1 UNL1 0.000
    39 C       2.705844     1.667800     0.457591 C          1 UNL1 0.000
    40 H       2.155648    -1.654999     0.650292 H          1 UNL1 0.000
    41 H       4.897046     1.958755     0.533155 H          1 UNL1 0.000
    42 H       2.375362     2.695868     0.369476 H          1 UNL1 0.000
@<TRIPOS>BOND
     1      1      2   2
     2      2      3   1
     3      3      4   2
     4      4      5   1
     5      5      6   2
     6      6      1   1
     7      4      7   1
     8      7      8   1
     9      8      9   2
    10      9     10   1
    11     10     11   2
    12     11     12   1
    13     12     13   2
    14     13      8   1
    15     14     15   2
    16     15     16   1
    17     16     17   2
    18     17     18   1
    19     18     19   1
    20     19     14   1
    21     18     20   2
    22     20     21   1
    23     21     22   1
    24     22     19   2
    25      7     14   1
    26      1     23   1
    27      2     24   1
    28      3     25   1
    29      5     26   1
    30      6     27   1
    31      9     28   1
    32     10     29   1
    33     11     30   1
    34     12     31   1
    35     13     32   1
    36     15     33   1
    37     16     34   1
    38     35     36   2
    39     36     37   1
    40     37     38   1
    41     38     39   2
    42     39     35   1
    43     36     40   1
    44     38     41   1
    45     39     42   1
    46     17     35   1
