# Produced with molli package
@<TRIPOS>MOLECULE
A_8_S
50 54 0 0 0
SMALL
USER_CHARGES

@<TRIPOS>ATOM
     1 C      -6.008592     4.351401     0.357653 C          1 UNL1 0.000
     2 C      -6.655366     3.203328    -0.087746 C          1 UNL1 0.000
     3 C      -5.998718     1.965346    -0.060770 C          1 UNL1 0.000
     4 C      -4.697877     1.833401     0.453929 C          1 UNL1 0.000
     5 C      -4.058610     3.022706     0.868531 C          1 UNL1 0.000
     6 C      -4.702219     4.264272     0.820712 C          1 UNL1 0.000
     7 N      -4.013957     0.557521     0.531368 N          1 UNL1 0.000
     8 C      -4.672451    -0.730934     0.628839 C          1 UNL1 0.000
     9 C      -5.959266    -0.883101     1.173585 C          1 UNL1 0.000
    10 C      -6.588699    -2.134249     1.232605 C          1 UNL1 0.000
    11 C      -5.926886    -3.275330     0.791720 C          1 UNL1 0.000
    12 C      -4.634320    -3.167251     0.296526 C          1 UNL1 0.000
    13 C      -4.019805    -1.912995     0.214161 C          1 UNL1 0.000
    14 C      -2.578950     0.570834     0.461206 C          1 UNL1 0.000
    15 C      -1.812548     0.504027     1.652602 C          1 UNL1 0.000
    16 C      -0.399846     0.520679     1.678972 C          1 UNL1 0.000
    17 C       0.395007     0.581466     0.514382 C          1 UNL1 0.000
    18 C      -0.312337     0.628781    -0.723466 C          1 UNL1 0.000
    19 C      -1.824780     0.631489    -0.750552 C          1 UNL1 0.000
    20 N       0.227632     0.668598    -1.955239 N          1 UNL1 0.000
    21 S      -1.030692     0.693525    -3.032511 S          1 UNL1 0.000
    22 N      -2.322880     0.668182    -1.999340 N          1 UNL1 0.000
    23 H      -6.515433     5.312245     0.330593 H          1 UNL1 0.000
    24 H      -7.671228     3.267834    -0.469095 H          1 UNL1 0.000
    25 H      -6.521914     1.107260    -0.473406 H          1 UNL1 0.000
    26 H      -3.042694     3.007338     1.251761 H          1 UNL1 0.000
    27 H      -4.178510     5.158318     1.149133 H          1 UNL1 0.000
    28 H      -6.497013    -0.030578     1.578330 H          1 UNL1 0.000
    29 H      -7.597018    -2.213924     1.630727 H          1 UNL1 0.000
    30 H      -6.412961    -4.245949     0.840576 H          1 UNL1 0.000
    31 H      -4.099810    -4.053383    -0.036235 H          1 UNL1 0.000
    32 H      -3.017339    -1.883358    -0.202772 H          1 UNL1 0.000
    33 H      -2.346365     0.451558     2.603177 H          1 UNL1 0.000
    34 H       0.094520     0.479594     2.651030 H          1 UNL1 0.000
    35 C       1.852237     0.582855     0.554892 C          1 UNL1 0.000
    36 C       2.570088    -0.617220     0.479231 C          1 UNL1 0.000
    37 C       3.967806    -0.614575     0.507460 C          1 UNL1 0.000
    38 C       4.677885     0.589004     0.612526 C          1 UNL1 0.000
    39 C       3.967274     1.789311     0.710581 C          1 UNL1 0.000
    40 C       2.566591     1.783365     0.677015 C          1 UNL1 0.000
    41 C       6.171103     0.521237     0.619954 C          1 UNL1 0.000
    42 C       6.989741     1.782624     0.511955 C          1 UNL1 0.000
    43 O       6.725874    -0.570073     0.731000 O          1 UNL1 0.000
    44 H       2.045624    -1.566458     0.386397 H          1 UNL1 0.000
    45 H       4.500001    -1.562091     0.438823 H          1 UNL1 0.000
    46 H       4.467577     2.746417     0.816734 H          1 UNL1 0.000
    47 H       2.031925     2.729997     0.738101 H          1 UNL1 0.000
    48 H       7.331627     2.077205     1.507266 H          1 UNL1 0.000
    49 H       6.445906     2.604917     0.046141 H          1 UNL1 0.000
    50 H       7.856063     1.580124    -0.125951 H          1 UNL1 0.000
@<TRIPOS>BOND
     1      1      2   2
     2      2      3   1
     3      3      4   2
     4      4      5   1
     5      5      6   2
     6      6      1   1
     7      4      7   1
     8      7      8   1
     9      8      9   2
    10      9     10   1
    11     10     11   2
    12     11     12   1
    13     12     13   2
    14     13      8   1
    15     14     15   2
    16     15     16   1
    17     16     17   2
    18     17     18   1
    19     18     19   1
    20     19     14   1
    21     18     20   2
    22     20     21   1
    23     21     22   1
    24     22     19   2
    25      7     14   1
    26      1     23   1
    27      2     24   1
    28      3     25   1
    29      5     26   1
    30      6     27   1
    31      9     28   1
    32     10     29   1
    33     11     30   1
    34     12     31   1
    35     13     32   1
    36     15     33   1
    37     16     34   1
    38     35     36   2
    39     36     37   1
    40     37     38   2
    41     38     39   1
    42     39     40   2
    43     40     35   1
    44     38     41   1
    45     41     42   1
    46     41     43   2
    47     36     44   1
    48     37     45   1
    49     39     46   1
    50     40     47   1
    51     42     48   1
    52     42     49   1
    53     42     50   1
    54     17     35   1
