# Produced with molli package
@<TRIPOS>MOLECULE
A_8_T
48 52 0 0 0
SMALL
USER_CHARGES

@<TRIPOS>ATOM
     1 C      -5.941462     4.186619     0.272714 C          1 UNL1 0.000
     2 C      -6.546938     3.032355    -0.214564 C          1 UNL1 0.000
     3 C      -5.881233     1.803453    -0.140939 C          1 UNL1 0.000
     4 C      -4.605087     1.695998     0.439267 C          1 UNL1 0.000
     5 C      -4.008170     2.883966     0.907450 C          1 UNL1 0.000
     6 C      -4.668419     4.114429     0.827418 C          1 UNL1 0.000
     7 N      -3.913997     0.430192     0.532688 N          1 UNL1 0.000
     8 C      -4.593858    -0.840393     0.623359 C          1 UNL1 0.000
     9 C      -5.803854    -0.978988     1.326002 C          1 UNL1 0.000
    10 C      -6.462628    -2.211216     1.401999 C          1 UNL1 0.000
    11 C      -5.914220    -3.336549     0.793451 C          1 UNL1 0.000
    12 C      -4.705408    -3.232429     0.113799 C          1 UNL1 0.000
    13 C      -4.052311    -1.998816     0.032515 C          1 UNL1 0.000
    14 C      -2.481537     0.431660     0.460525 C          1 UNL1 0.000
    15 C      -1.714015     0.254658     1.638862 C          1 UNL1 0.000
    16 C      -0.300749     0.267240     1.664858 C          1 UNL1 0.000
    17 C       0.494413     0.438454     0.510955 C          1 UNL1 0.000
    18 C      -0.214691     0.597861    -0.716049 C          1 UNL1 0.000
    19 C      -1.727745     0.600792    -0.741031 C          1 UNL1 0.000
    20 N       0.321788     0.749280    -1.941009 N          1 UNL1 0.000
    21 S      -0.937413     0.870974    -3.008832 S          1 UNL1 0.000
    22 N      -2.228043     0.747189    -1.980947 N          1 UNL1 0.000
    23 H      -6.456355     5.141600     0.211293 H          1 UNL1 0.000
    24 H      -7.535341     3.085134    -0.663397 H          1 UNL1 0.000
    25 H      -6.367295     0.930105    -0.568365 H          1 UNL1 0.000
    26 H      -3.020660     2.869144     1.359744 H          1 UNL1 0.000
    27 H      -4.184502     5.013430     1.200157 H          1 UNL1 0.000
    28 H      -6.243931    -0.125505     1.835815 H          1 UNL1 0.000
    29 H      -7.403775    -2.289345     1.939914 H          1 UNL1 0.000
    30 H      -6.426538    -4.293304     0.849723 H          1 UNL1 0.000
    31 H      -4.269889    -4.106582    -0.363344 H          1 UNL1 0.000
    32 H      -3.123822    -1.953181    -0.530072 H          1 UNL1 0.000
    33 H      -2.245365     0.121627     2.582819 H          1 UNL1 0.000
    34 H       0.195549     0.143326     2.628916 H          1 UNL1 0.000
    35 C       1.952107     0.445547     0.553416 C          1 UNL1 0.000
    36 C       2.663952     1.653258     0.564233 C          1 UNL1 0.000
    37 C       4.061390     1.660862     0.602143 C          1 UNL1 0.000
    38 C       4.775330     0.458932     0.628799 C          1 UNL1 0.000
    39 C       4.070516    -0.749709     0.623647 C          1 UNL1 0.000
    40 C       2.673302    -0.755669     0.588922 C          1 UNL1 0.000
    41 C       6.274812     0.451183     0.651855 C          1 UNL1 0.000
    42 H       2.131464     2.601625     0.533830 H          1 UNL1 0.000
    43 H       4.585052     2.614006     0.602361 H          1 UNL1 0.000
    44 H       4.606067    -1.696273     0.638104 H          1 UNL1 0.000
    45 H       2.149050    -1.708838     0.574733 H          1 UNL1 0.000
    46 H       6.662105    -0.066567    -0.231635 H          1 UNL1 0.000
    47 H       6.635761    -0.054260     1.553216 H          1 UNL1 0.000
    48 H       6.682107     1.467559     0.650271 H          1 UNL1 0.000
@<TRIPOS>BOND
     1      1      2   2
     2      2      3   1
     3      3      4   2
     4      4      5   1
     5      5      6   2
     6      6      1   1
     7      4      7   1
     8      7      8   1
     9      8      9   2
    10      9     10   1
    11     10     11   2
    12     11     12   1
    13     12     13   2
    14     13      8   1
    15     14     15   2
    16     15     16   1
    17     16     17   2
    18     17     18   1
    19     18     19   1
    20     19     14   1
    21     18     20   2
    22     20     21   1
    23     21     22   1
    24     22     19   2
    25      7     14   1
    26      1     23   1
    27      2     24   1
    28      3     25   1
    29      5     26   1
    30      6     27   1
    31      9     28   1
    32     10     29   1
    33     11     30   1
    34     12     31   1
    35     13     32   1
    36     15     33   1
    37     16     34   1
    38     35     36   2
    39     36     37   1
    40     37     38   2
    41     38     39   1
    42     39     40   2
    43     40     35   1
    44     38     41   1
    45     36     42   1
    46     37     43   1
    47     39     44   1
    48     40     45   1
    49     41     46   1
    50     41     47   1
    51     41     48   1
    52     17     35   1
