# Produced with molli package
@<TRIPOS>MOLECULE
A_8_P
49 53 0 0 0
SMALL
USER_CHARGES

@<TRIPOS>ATOM
     1 C      -5.924650     4.274793     0.207559 C          1 UNL1 0.000
     2 C      -6.511871     3.127714    -0.318508 C          1 UNL1 0.000
     3 C      -5.851379     1.897454    -0.233079 C          1 UNL1 0.000
     4 C      -4.596971     1.784897     0.391417 C          1 UNL1 0.000
     5 C      -4.017501     2.963401     0.901195 C          1 UNL1 0.000
     6 C      -4.674832     4.194434     0.813091 C          1 UNL1 0.000
     7 N      -3.911741     0.518374     0.494408 N          1 UNL1 0.000
     8 C      -4.606288    -0.742024     0.591252 C          1 UNL1 0.000
     9 C      -5.804688    -0.864104     1.316188 C          1 UNL1 0.000
    10 C      -6.478495    -2.086914     1.400559 C          1 UNL1 0.000
    11 C      -5.959781    -3.215755     0.772175 C          1 UNL1 0.000
    12 C      -4.765729    -3.124747     0.063888 C          1 UNL1 0.000
    13 C      -4.094832    -1.901375    -0.022426 C          1 UNL1 0.000
    14 C      -2.479585     0.509170     0.422181 C          1 UNL1 0.000
    15 C      -1.713888     0.211090     1.576683 C          1 UNL1 0.000
    16 C      -0.300007     0.207604     1.603679 C          1 UNL1 0.000
    17 C       0.501480     0.487174     0.474370 C          1 UNL1 0.000
    18 C      -0.208528     0.770751    -0.731081 C          1 UNL1 0.000
    19 C      -1.722039     0.786190    -0.756393 C          1 UNL1 0.000
    20 N       0.328838     1.034980    -1.936429 N          1 UNL1 0.000
    21 S      -0.927983     1.261541    -2.989280 S          1 UNL1 0.000
    22 N      -2.219541     1.051539    -1.977606 N          1 UNL1 0.000
    23 H      -6.436344     5.230974     0.138125 H          1 UNL1 0.000
    24 H      -7.481405     3.187572    -0.805870 H          1 UNL1 0.000
    25 H      -6.320132     1.027013    -0.685374 H          1 UNL1 0.000
    26 H      -3.049421     2.936450     1.393554 H          1 UNL1 0.000
    27 H      -4.207711     5.087801     1.219153 H          1 UNL1 0.000
    28 H      -6.221311    -0.004534     1.835673 H          1 UNL1 0.000
    29 H      -7.408295    -2.154946     1.959182 H          1 UNL1 0.000
    30 H      -6.485105    -4.165165     0.833848 H          1 UNL1 0.000
    31 H      -4.356823    -4.001541    -0.431586 H          1 UNL1 0.000
    32 H      -3.179315    -1.860248    -0.606773 H          1 UNL1 0.000
    33 H      -2.246455    -0.005690     2.504390 H          1 UNL1 0.000
    34 H       0.190723    -0.011503     2.553614 H          1 UNL1 0.000
    35 C       1.962598     0.474979     0.517803 C          1 UNL1 0.000
    36 C       2.701547     1.653160     0.316283 C          1 UNL1 0.000
    37 C       4.098254     1.637378     0.343856 C          1 UNL1 0.000
    38 C       4.767824     0.443521     0.589294 C          1 UNL1 0.000
    39 C       4.059305    -0.740036     0.776534 C          1 UNL1 0.000
    40 C       2.662295    -0.720653     0.752338 C          1 UNL1 0.000
    41 O       6.134922     0.436529     0.553481 O          1 UNL1 0.000
    42 C       6.666674     0.393041     1.876912 C          1 UNL1 0.000
    43 H       2.189739     2.593124     0.119061 H          1 UNL1 0.000
    44 H       4.657836     2.550611     0.164824 H          1 UNL1 0.000
    45 H       4.587377    -1.677763     0.920333 H          1 UNL1 0.000
    46 H       2.120471    -1.654338     0.888460 H          1 UNL1 0.000
    47 H       7.757935     0.381548     1.798085 H          1 UNL1 0.000
    48 H       6.357656    -0.514392     2.406811 H          1 UNL1 0.000
    49 H       6.376209     1.284552     2.443651 H          1 UNL1 0.000
@<TRIPOS>BOND
     1      1      2   2
     2      2      3   1
     3      3      4   2
     4      4      5   1
     5      5      6   2
     6      6      1   1
     7      4      7   1
     8      7      8   1
     9      8      9   2
    10      9     10   1
    11     10     11   2
    12     11     12   1
    13     12     13   2
    14     13      8   1
    15     14     15   2
    16     15     16   1
    17     16     17   2
    18     17     18   1
    19     18     19   1
    20     19     14   1
    21     18     20   2
    22     20     21   1
    23     21     22   1
    24     22     19   2
    25      7     14   1
    26      1     23   1
    27      2     24   1
    28      3     25   1
    29      5     26   1
    30      6     27   1
    31      9     28   1
    32     10     29   1
    33     11     30   1
    34     12     31   1
    35     13     32   1
    36     15     33   1
    37     16     34   1
    38     35     36   2
    39     36     37   1
    40     37     38   2
    41     38     39   1
    42     39     40   2
    43     40     35   1
    44     41     42   1
    45     38     41   1
    46     36     43   1
    47     37     44   1
    48     39     45   1
    49     40     46   1
    50     42     47   1
    51     42     48   1
    52     42     49   1
    53     17     35   1
