# Produced with molli package
@<TRIPOS>MOLECULE
A_8_K
47 51 0 0 0
SMALL
USER_CHARGES

@<TRIPOS>ATOM
     1 C      -5.960172     4.238621     0.324267 C          1 UNL1 0.000
     2 C      -6.572410     3.092134    -0.173178 C          1 UNL1 0.000
     3 C      -5.910089     1.860276    -0.119660 C          1 UNL1 0.000
     4 C      -4.630882     1.742148     0.450981 C          1 UNL1 0.000
     5 C      -4.027157     2.922629     0.930043 C          1 UNL1 0.000
     6 C      -4.683704     4.156029     0.869361 C          1 UNL1 0.000
     7 N      -3.942489     0.473634     0.525925 N          1 UNL1 0.000
     8 C      -4.622516    -0.796552     0.622996 C          1 UNL1 0.000
     9 C      -5.833240    -0.933676     1.324282 C          1 UNL1 0.000
    10 C      -6.488727    -2.167266     1.407559 C          1 UNL1 0.000
    11 C      -5.935890    -3.295605     0.808680 C          1 UNL1 0.000
    12 C      -4.726579    -3.192962     0.129903 C          1 UNL1 0.000
    13 C      -4.077618    -1.957817     0.039948 C          1 UNL1 0.000
    14 C      -2.510780     0.474144     0.443004 C          1 UNL1 0.000
    15 C      -1.734697     0.254866     1.608819 C          1 UNL1 0.000
    16 C      -0.321226     0.268482     1.626245 C          1 UNL1 0.000
    17 C       0.466302     0.486707     0.475029 C          1 UNL1 0.000
    18 C      -0.253034     0.686890    -0.740981 C          1 UNL1 0.000
    19 C      -1.765449     0.685758    -0.756490 C          1 UNL1 0.000
    20 N       0.277284     0.881955    -1.962276 N          1 UNL1 0.000
    21 S      -0.989255     1.033985    -3.019242 S          1 UNL1 0.000
    22 N      -2.272681     0.872968    -1.987964 N          1 UNL1 0.000
    23 H      -6.472857     5.195737     0.278627 H          1 UNL1 0.000
    24 H      -7.563973     3.153673    -0.613968 H          1 UNL1 0.000
    25 H      -6.401677     0.993570    -0.554229 H          1 UNL1 0.000
    26 H      -3.037301     2.898990     1.376702 H          1 UNL1 0.000
    27 H      -4.194898     5.049010     1.250151 H          1 UNL1 0.000
    28 H      -6.277158    -0.078801     1.828320 H          1 UNL1 0.000
    29 H      -7.430856    -2.244194     1.944047 H          1 UNL1 0.000
    30 H      -6.445482    -4.253452     0.871662 H          1 UNL1 0.000
    31 H      -4.287827    -4.069621    -0.339656 H          1 UNL1 0.000
    32 H      -3.148684    -1.913473    -0.522066 H          1 UNL1 0.000
    33 H      -2.260199     0.088875     2.551044 H          1 UNL1 0.000
    34 H       0.178202     0.113226     2.584177 H          1 UNL1 0.000
    35 C       1.925881     0.503779     0.505708 C          1 UNL1 0.000
    36 C       2.651749    -0.685188     0.690895 C          1 UNL1 0.000
    37 C       4.049402    -0.676192     0.710628 C          1 UNL1 0.000
    38 C       4.729358     0.535400     0.546225 C          1 UNL1 0.000
    39 C       4.028687     1.732417     0.367838 C          1 UNL1 0.000
    40 C       2.631568     1.709712     0.349605 C          1 UNL1 0.000
    41 N       6.192732     0.550290     0.559090 N          1 UNL1 0.000
    42 O       6.762594     1.501104     0.006045 O          1 UNL1 0.000
    43 O       6.769998    -0.388487     1.126607 O          1 UNL1 0.000
    44 H       2.127497    -1.633159     0.803333 H          1 UNL1 0.000
    45 H       4.587778    -1.612472     0.841845 H          1 UNL1 0.000
    46 H       4.548917     2.679330     0.240550 H          1 UNL1 0.000
    47 H       2.089854     2.643443     0.203364 H          1 UNL1 0.000
@<TRIPOS>BOND
     1      1      2   2
     2      2      3   1
     3      3      4   2
     4      4      5   1
     5      5      6   2
     6      6      1   1
     7      4      7   1
     8      7      8   1
     9      8      9   2
    10      9     10   1
    11     10     11   2
    12     11     12   1
    13     12     13   2
    14     13      8   1
    15     14     15   2
    16     15     16   1
    17     16     17   2
    18     17     18   1
    19     18     19   1
    20     19     14   1
    21     18     20   2
    22     20     21   1
    23     21     22   1
    24     22     19   2
    25      7     14   1
    26      1     23   1
    27      2     24   1
    28      3     25   1
    29      5     26   1
    30      6     27   1
    31      9     28   1
    32     10     29   1
    33     11     30   1
    34     12     31   1
    35     13     32   1
    36     15     33   1
    37     16     34   1
    38     35     36   2
    39     36     37   1
    40     37     38   2
    41     38     39   1
    42     39     40   2
    43     40     35   1
    44     41     42   2
    45     41     43   1
    46     38     41   1
    47     36     44   1
    48     37     45   1
    49     39     46   1
    50     40     47   1
    51     17     35   1
