# Produced with molli package
@<TRIPOS>MOLECULE
A_8_R
46 50 0 0 0
SMALL
USER_CHARGES

@<TRIPOS>ATOM
     1 C      -6.031209     4.312622     0.924970 C          1 UNL1 0.000
     2 C      -6.598327     3.166406     1.474697 C          1 UNL1 0.000
     3 C      -5.938667     1.936342     1.373198 C          1 UNL1 0.000
     4 C      -4.709215     1.821309     0.701472 C          1 UNL1 0.000
     5 C      -4.151079     2.999854     0.166949 C          1 UNL1 0.000
     6 C      -4.803733     4.231350     0.276600 C          1 UNL1 0.000
     7 N      -4.025416     0.555175     0.580311 N          1 UNL1 0.000
     8 C      -4.711645    -0.711347     0.460552 C          1 UNL1 0.000
     9 C      -5.973381    -0.820551    -0.148177 C          1 UNL1 0.000
    10 C      -6.626386    -2.054384    -0.249643 C          1 UNL1 0.000
    11 C      -6.021669    -3.209741     0.237430 C          1 UNL1 0.000
    12 C      -4.763018    -3.134015     0.823575 C          1 UNL1 0.000
    13 C      -4.116836    -1.899041     0.933965 C          1 UNL1 0.000
    14 C      -2.593068     0.554351     0.495989 C          1 UNL1 0.000
    15 C      -1.813370     0.878640     1.633075 C          1 UNL1 0.000
    16 C      -0.399426     0.858926     1.645964 C          1 UNL1 0.000
    17 C       0.390827     0.514415     0.524632 C          1 UNL1 0.000
    18 C      -0.335721     0.215736    -0.665490 C          1 UNL1 0.000
    19 C      -1.848729     0.233855    -0.679762 C          1 UNL1 0.000
    20 N       0.185697    -0.096809    -1.867272 N          1 UNL1 0.000
    21 S      -1.084621    -0.308104    -2.908631 S          1 UNL1 0.000
    22 N      -2.360225    -0.054232    -1.889860 N          1 UNL1 0.000
    23 H      -6.543406     5.267939     1.003203 H          1 UNL1 0.000
    24 H      -7.554860     3.226654     1.987265 H          1 UNL1 0.000
    25 H      -6.395011     1.066571     1.839095 H          1 UNL1 0.000
    26 H      -3.206027     2.972782    -0.369327 H          1 UNL1 0.000
    27 H      -4.352684     5.122182    -0.152990 H          1 UNL1 0.000
    28 H      -6.456161     0.054295    -0.576044 H          1 UNL1 0.000
    29 H      -7.604405    -2.110744    -0.720327 H          1 UNL1 0.000
    30 H      -6.526763    -4.168227     0.152713 H          1 UNL1 0.000
    31 H      -4.280516    -4.033202     1.197507 H          1 UNL1 0.000
    32 H      -3.141827    -1.877318     1.412776 H          1 UNL1 0.000
    33 H      -2.332460     1.138316     2.557467 H          1 UNL1 0.000
    34 H       0.106506     1.116507     2.579037 H          1 UNL1 0.000
    35 C       1.849709     0.489278     0.559084 C          1 UNL1 0.000
    36 N       2.440176     1.596681     1.081627 N          1 UNL1 0.000
    37 C       3.797068     1.641675     1.101437 C          1 UNL1 0.000
    38 C       4.595417     0.605393     0.646118 C          1 UNL1 0.000
    39 C       3.988320    -0.546124     0.148387 C          1 UNL1 0.000
    40 C       2.595314    -0.601314     0.104893 C          1 UNL1 0.000
    41 N       6.043709     0.731407     0.688451 N          1 UNL1 0.000
    42 O       6.713043    -0.152420     0.134784 O          1 UNL1 0.000
    43 O       6.520094     1.711675     1.276051 O          1 UNL1 0.000
    44 H       4.209704     2.565628     1.499211 H          1 UNL1 0.000
    45 H       4.571027    -1.390774    -0.210917 H          1 UNL1 0.000
    46 H       2.102186    -1.487172    -0.286863 H          1 UNL1 0.000
@<TRIPOS>BOND
     1      1      2   2
     2      2      3   1
     3      3      4   2
     4      4      5   1
     5      5      6   2
     6      6      1   1
     7      4      7   1
     8      7      8   1
     9      8      9   2
    10      9     10   1
    11     10     11   2
    12     11     12   1
    13     12     13   2
    14     13      8   1
    15     14     15   2
    16     15     16   1
    17     16     17   2
    18     17     18   1
    19     18     19   1
    20     19     14   1
    21     18     20   2
    22     20     21   1
    23     21     22   1
    24     22     19   2
    25      7     14   1
    26      1     23   1
    27      2     24   1
    28      3     25   1
    29      5     26   1
    30      6     27   1
    31      9     28   1
    32     10     29   1
    33     11     30   1
    34     12     31   1
    35     13     32   1
    36     15     33   1
    37     16     34   1
    38     35     36   2
    39     36     37   1
    40     37     38   2
    41     38     39   1
    42     39     40   2
    43     40     35   1
    44     41     42   2
    45     41     43   1
    46     38     41   1
    47     37     44   1
    48     39     45   1
    49     40     46   1
    50     17     35   1
