# Produced with molli package
@<TRIPOS>MOLECULE
A_8_Q
43 47 0 0 0
SMALL
USER_CHARGES

@<TRIPOS>ATOM
     1 C      -5.939202     4.239498     0.353121 C          1 UNL1 0.000
     2 C      -6.511314     3.115576    -0.236390 C          1 UNL1 0.000
     3 C      -5.850990     1.882873    -0.188967 C          1 UNL1 0.000
     4 C      -4.615138     1.743369     0.465084 C          1 UNL1 0.000
     5 C      -4.049382     2.900022     1.038062 C          1 UNL1 0.000
     6 C      -4.704319     4.134149     0.984582 C          1 UNL1 0.000
     7 N      -3.928196     0.474945     0.536356 N          1 UNL1 0.000
     8 C      -4.613554    -0.794617     0.613093 C          1 UNL1 0.000
     9 C      -5.866816    -0.921333     1.238061 C          1 UNL1 0.000
    10 C      -6.529901    -2.152417     1.295728 C          1 UNL1 0.000
    11 C      -5.942844    -3.289895     0.749658 C          1 UNL1 0.000
    12 C      -4.692153    -3.198611     0.148925 C          1 UNL1 0.000
    13 C      -4.036362    -1.965465     0.081895 C          1 UNL1 0.000
    14 C      -2.496583     0.482023     0.445175 C          1 UNL1 0.000
    15 C      -1.709918     0.137969     1.571519 C          1 UNL1 0.000
    16 C      -0.295901     0.136445     1.571169 C          1 UNL1 0.000
    17 C       0.484959     0.480677     0.443617 C          1 UNL1 0.000
    18 C      -0.246763     0.812659    -0.730716 C          1 UNL1 0.000
    19 C      -1.759933     0.813500    -0.734061 C          1 UNL1 0.000
    20 N       0.270870     1.143543    -1.929881 N          1 UNL1 0.000
    21 S      -1.004720     1.379418    -2.959527 S          1 UNL1 0.000
    22 N      -2.277042     1.122229    -1.934988 N          1 UNL1 0.000
    23 H      -6.450996     5.197376     0.313181 H          1 UNL1 0.000
    24 H      -7.469275     3.196186    -0.743334 H          1 UNL1 0.000
    25 H      -6.305269     1.032807    -0.691805 H          1 UNL1 0.000
    26 H      -3.094768     2.850990     1.554451 H          1 UNL1 0.000
    27 H      -4.248172     5.009699     1.439117 H          1 UNL1 0.000
    28 H      -6.341433    -0.060138     1.701517 H          1 UNL1 0.000
    29 H      -7.504830    -2.219688     1.771427 H          1 UNL1 0.000
    30 H      -6.457394    -4.246050     0.793887 H          1 UNL1 0.000
    31 H      -4.224756    -4.082823    -0.276779 H          1 UNL1 0.000
    32 H      -3.071829    -1.932771    -0.418045 H          1 UNL1 0.000
    33 H      -2.224027    -0.127599     2.497354 H          1 UNL1 0.000
    34 H       0.217115    -0.141201     2.494035 H          1 UNL1 0.000
    35 C       1.939938     0.470234     0.453806 C          1 UNL1 0.000
    36 N       2.524380    -0.699564     0.823016 N          1 UNL1 0.000
    37 C       3.878053    -0.713263     0.810021 C          1 UNL1 0.000
    38 C       4.632111     0.401180     0.484749 C          1 UNL1 0.000
    39 N       4.068898     1.581255     0.149243 N          1 UNL1 0.000
    40 C       2.711999     1.585729     0.129893 C          1 UNL1 0.000
    41 H       4.345551    -1.656703     1.066991 H          1 UNL1 0.000
    42 H       5.715628     0.373054     0.483712 H          1 UNL1 0.000
    43 H       2.257257     2.531123    -0.147284 H          1 UNL1 0.000
@<TRIPOS>BOND
     1      1      2   2
     2      2      3   1
     3      3      4   2
     4      4      5   1
     5      5      6   2
     6      6      1   1
     7      4      7   1
     8      7      8   1
     9      8      9   2
    10      9     10   1
    11     10     11   2
    12     11     12   1
    13     12     13   2
    14     13      8   1
    15     14     15   2
    16     15     16   1
    17     16     17   2
    18     17     18   1
    19     18     19   1
    20     19     14   1
    21     18     20   2
    22     20     21   1
    23     21     22   1
    24     22     19   2
    25      7     14   1
    26      1     23   1
    27      2     24   1
    28      3     25   1
    29      5     26   1
    30      6     27   1
    31      9     28   1
    32     10     29   1
    33     11     30   1
    34     12     31   1
    35     13     32   1
    36     15     33   1
    37     16     34   1
    38     35     36   2
    39     36     37   1
    40     37     38   2
    41     38     39   1
    42     39     40   2
    43     40     35   1
    44     37     41   1
    45     38     42   1
    46     40     43   1
    47     17     35   1
