# Produced with molli package
@<TRIPOS>MOLECULE
A_8_O
44 48 0 0 0
SMALL
USER_CHARGES

@<TRIPOS>ATOM
     1 C      -5.951009     4.304911     0.252248 C          1 UNL1 0.000
     2 C      -6.572923     3.157087    -0.230175 C          1 UNL1 0.000
     3 C      -5.923597     1.919068    -0.155847 C          1 UNL1 0.000
     4 C      -4.649393     1.795720     0.423987 C          1 UNL1 0.000
     5 C      -4.036956     2.977531     0.890311 C          1 UNL1 0.000
     6 C      -4.678574     4.217255     0.805471 C          1 UNL1 0.000
     7 N      -3.969615     0.523192     0.520937 N          1 UNL1 0.000
     8 C      -4.654869    -0.744723     0.620262 C          1 UNL1 0.000
     9 C      -5.888005    -0.870995     1.283275 C          1 UNL1 0.000
    10 C      -6.549034    -2.102359     1.361008 C          1 UNL1 0.000
    11 C      -5.978279    -3.240458     0.798583 C          1 UNL1 0.000
    12 C      -4.745396    -3.149835     0.162305 C          1 UNL1 0.000
    13 C      -4.092365    -1.916618     0.075168 C          1 UNL1 0.000
    14 C      -2.536581     0.518417     0.443018 C          1 UNL1 0.000
    15 C      -1.765401     0.242134     1.599432 C          1 UNL1 0.000
    16 C      -0.352305     0.251832     1.618564 C          1 UNL1 0.000
    17 C       0.440089     0.536682     0.484244 C          1 UNL1 0.000
    18 C      -0.272696     0.794863    -0.721645 C          1 UNL1 0.000
    19 C      -1.785900     0.784576    -0.742690 C          1 UNL1 0.000
    20 N       0.257707     1.065535    -1.928628 N          1 UNL1 0.000
    21 S      -1.005613     1.231240    -2.986470 S          1 UNL1 0.000
    22 N      -2.290630     1.024553    -1.966757 N          1 UNL1 0.000
    23 H      -6.452822     5.266670     0.188400 H          1 UNL1 0.000
    24 H      -7.561754     3.222264    -0.676460 H          1 UNL1 0.000
    25 H      -6.421533     1.052112    -0.582212 H          1 UNL1 0.000
    26 H      -3.050011     2.949320     1.343553 H          1 UNL1 0.000
    27 H      -4.181018     5.110626     1.173597 H          1 UNL1 0.000
    28 H      -6.347033    -0.009462     1.761448 H          1 UNL1 0.000
    29 H      -7.509330    -2.169965     1.865462 H          1 UNL1 0.000
    30 H      -6.491015    -4.196737     0.858377 H          1 UNL1 0.000
    31 H      -4.289495    -4.034196    -0.275454 H          1 UNL1 0.000
    32 H      -3.142325    -1.883788    -0.451946 H          1 UNL1 0.000
    33 H      -2.291568     0.027934     2.531042 H          1 UNL1 0.000
    34 H       0.151856     0.033044     2.561941 H          1 UNL1 0.000
    35 C       1.894002     0.552682     0.521214 C          1 UNL1 0.000
    36 N       2.484074    -0.645379     0.756046 N          1 UNL1 0.000
    37 C       3.834683    -0.674901     0.780585 C          1 UNL1 0.000
    38 C       4.634867     0.443901     0.621804 C          1 UNL1 0.000
    39 C       4.014896     1.669937     0.417567 C          1 UNL1 0.000
    40 C       2.625320     1.727991     0.359751 C          1 UNL1 0.000
    41 H       4.271817    -1.657343     0.934379 H          1 UNL1 0.000
    42 H       5.715222     0.361115     0.654575 H          1 UNL1 0.000
    43 H       4.606070     2.572901     0.296137 H          1 UNL1 0.000
    44 H       2.124030     2.675955     0.191872 H          1 UNL1 0.000
@<TRIPOS>BOND
     1      1      2   2
     2      2      3   1
     3      3      4   2
     4      4      5   1
     5      5      6   2
     6      6      1   1
     7      4      7   1
     8      7      8   1
     9      8      9   2
    10      9     10   1
    11     10     11   2
    12     11     12   1
    13     12     13   2
    14     13      8   1
    15     14     15   2
    16     15     16   1
    17     16     17   2
    18     17     18   1
    19     18     19   1
    20     19     14   1
    21     18     20   2
    22     20     21   1
    23     21     22   1
    24     22     19   2
    25      7     14   1
    26      1     23   1
    27      2     24   1
    28      3     25   1
    29      5     26   1
    30      6     27   1
    31      9     28   1
    32     10     29   1
    33     11     30   1
    34     12     31   1
    35     13     32   1
    36     15     33   1
    37     16     34   1
    38     35     36   2
    39     36     37   1
    40     37     38   2
    41     38     39   1
    42     39     40   2
    43     40     35   1
    44     37     41   1
    45     38     42   1
    46     39     43   1
    47     40     44   1
    48     17     35   1
