# Produced with molli package
@<TRIPOS>MOLECULE
A_8_M
46 50 0 0 0
SMALL
USER_CHARGES

@<TRIPOS>ATOM
     1 C      -5.973483     4.338675     0.443712 C          1 UNL1 0.000
     2 C      -6.659982     3.197684     0.042880 C          1 UNL1 0.000
     3 C      -6.023495     1.948628     0.051109 C          1 UNL1 0.000
     4 C      -4.702819     1.796662     0.506932 C          1 UNL1 0.000
     5 C      -4.024464     2.980338     0.874450 C          1 UNL1 0.000
     6 C      -4.647732     4.233064     0.842381 C          1 UNL1 0.000
     7 N      -4.038547     0.507984     0.569912 N          1 UNL1 0.000
     8 C      -4.716290    -0.770794     0.664591 C          1 UNL1 0.000
     9 C      -5.989810    -0.910552     1.242950 C          1 UNL1 0.000
    10 C      -6.643665    -2.149601     1.290239 C          1 UNL1 0.000
    11 C      -6.017653    -3.293111     0.805878 C          1 UNL1 0.000
    12 C      -4.735477    -3.199856     0.281568 C          1 UNL1 0.000
    13 C      -4.097557    -1.956495     0.210801 C          1 UNL1 0.000
    14 C      -2.604128     0.497626     0.483001 C          1 UNL1 0.000
    15 C      -1.824448     0.454777     1.667233 C          1 UNL1 0.000
    16 C      -0.411130     0.471382     1.677923 C          1 UNL1 0.000
    17 C       0.370301     0.507677     0.503406 C          1 UNL1 0.000
    18 C      -0.350943     0.522534    -0.727118 C          1 UNL1 0.000
    19 C      -1.862886     0.526267    -0.737854 C          1 UNL1 0.000
    20 N       0.176197     0.530370    -1.965035 N          1 UNL1 0.000
    21 S      -1.093426     0.535002    -3.029252 S          1 UNL1 0.000
    22 N      -2.374208     0.535592    -1.981755 N          1 UNL1 0.000
    23 H      -6.464577     5.307927     0.430629 H          1 UNL1 0.000
    24 H      -7.691983     3.275845    -0.289515 H          1 UNL1 0.000
    25 H      -6.581938     1.098510    -0.330060 H          1 UNL1 0.000
    26 H      -2.990799     2.954586     1.205844 H          1 UNL1 0.000
    27 H      -4.092453     5.121320     1.132573 H          1 UNL1 0.000
    28 H      -6.498218    -0.057129     1.682368 H          1 UNL1 0.000
    29 H      -7.643078    -2.217819     1.712257 H          1 UNL1 0.000
    30 H      -6.523169    -4.254242     0.843720 H          1 UNL1 0.000
    31 H      -4.228053    -4.088737    -0.084522 H          1 UNL1 0.000
    32 H      -3.105856    -1.937989    -0.231288 H          1 UNL1 0.000
    33 H      -2.348062     0.429390     2.624657 H          1 UNL1 0.000
    34 H       0.093504     0.459324     2.645477 H          1 UNL1 0.000
    35 C       1.827826     0.533552     0.523782 C          1 UNL1 0.000
    36 C       2.519514     1.754459     0.526298 C          1 UNL1 0.000
    37 C       3.917259     1.784350     0.528416 C          1 UNL1 0.000
    38 C       4.643345     0.590235     0.529484 C          1 UNL1 0.000
    39 C       3.965051    -0.631991     0.535057 C          1 UNL1 0.000
    40 C       2.566889    -0.658582     0.533569 C          1 UNL1 0.000
    41 C       6.076292     0.619263     0.519902 C          1 UNL1 0.000
    42 N       7.237019     0.643503     0.514509 N          1 UNL1 0.000
    43 H       1.969456     2.694002     0.512483 H          1 UNL1 0.000
    44 H       4.430251     2.744255     0.520343 H          1 UNL1 0.000
    45 H       4.516287    -1.570481     0.531816 H          1 UNL1 0.000
    46 H       2.054630    -1.619212     0.525101 H          1 UNL1 0.000
@<TRIPOS>BOND
     1      1      2   2
     2      2      3   1
     3      3      4   2
     4      4      5   1
     5      5      6   2
     6      6      1   1
     7      4      7   1
     8      7      8   1
     9      8      9   2
    10      9     10   1
    11     10     11   2
    12     11     12   1
    13     12     13   2
    14     13      8   1
    15     14     15   2
    16     15     16   1
    17     16     17   2
    18     17     18   1
    19     18     19   1
    20     19     14   1
    21     18     20   2
    22     20     21   1
    23     21     22   1
    24     22     19   2
    25      7     14   1
    26      1     23   1
    27      2     24   1
    28      3     25   1
    29      5     26   1
    30      6     27   1
    31      9     28   1
    32     10     29   1
    33     11     30   1
    34     12     31   1
    35     13     32   1
    36     15     33   1
    37     16     34   1
    38     35     36   2
    39     36     37   1
    40     37     38   2
    41     38     39   1
    42     39     40   2
    43     40     35   1
    44     41     42   3
    45     38     41   1
    46     36     43   1
    47     37     44   1
    48     39     45   1
    49     40     46   1
    50     17     35   1
