# Produced with molli package
@<TRIPOS>MOLECULE
A_8_L
49 54 0 0 0
SMALL
USER_CHARGES

@<TRIPOS>ATOM
     1 C      -5.876120     4.195214     0.407536 C          1 UNL1 0.000
     2 C      -6.490871     3.060474    -0.113025 C          1 UNL1 0.000
     3 C      -5.831518     1.825633    -0.084990 C          1 UNL1 0.000
     4 C      -4.556339     1.689618     0.490169 C          1 UNL1 0.000
     5 C      -3.947865     2.861201     0.986345 C          1 UNL1 0.000
     6 C      -4.599078     4.098380     0.947766 C          1 UNL1 0.000
     7 N      -3.872712     0.416057     0.549836 N          1 UNL1 0.000
     8 C      -4.549209    -0.858154     0.658072 C          1 UNL1 0.000
     9 C      -5.805472    -0.983017     1.278138 C          1 UNL1 0.000
    10 C      -6.460551    -2.217793     1.361909 C          1 UNL1 0.000
    11 C      -5.858749    -3.365457     0.856129 C          1 UNL1 0.000
    12 C      -4.600826    -3.280079     0.271445 C          1 UNL1 0.000
    13 C      -3.955973    -2.042349     0.174224 C          1 UNL1 0.000
    14 C      -2.442118     0.423748     0.435503 C          1 UNL1 0.000
    15 C      -1.639062     0.314227     1.598349 C          1 UNL1 0.000
    16 C      -0.226697     0.353704     1.582419 C          1 UNL1 0.000
    17 C       0.532507     0.482910     0.399128 C          1 UNL1 0.000
    18 C      -0.212371     0.565221    -0.814048 C          1 UNL1 0.000
    19 C      -1.725800     0.542568    -0.794894 C          1 UNL1 0.000
    20 N       0.286806     0.662079    -2.059666 N          1 UNL1 0.000
    21 S      -1.004208     0.714003    -3.095065 S          1 UNL1 0.000
    22 N      -2.263500     0.620614    -2.025572 N          1 UNL1 0.000
    23 H      -6.386046     5.154481     0.382085 H          1 UNL1 0.000
    24 H      -7.482326     3.133722    -0.552184 H          1 UNL1 0.000
    25 H      -6.323609     0.970844    -0.541845 H          1 UNL1 0.000
    26 H      -2.957158     2.829173     1.430287 H          1 UNL1 0.000
    27 H      -4.105025     4.982285     1.342774 H          1 UNL1 0.000
    28 H      -6.292744    -0.117708     1.719719 H          1 UNL1 0.000
    29 H      -7.440758    -2.279282     1.827481 H          1 UNL1 0.000
    30 H      -6.366138    -4.324189     0.921024 H          1 UNL1 0.000
    31 H      -4.118577    -4.172358    -0.119436 H          1 UNL1 0.000
    32 H      -2.984937    -2.021748    -0.312416 H          1 UNL1 0.000
    33 H      -2.141479     0.219027     2.562382 H          1 UNL1 0.000
    34 H       0.299075     0.288492     2.536645 H          1 UNL1 0.000
    35 C       1.990461     0.534016     0.405948 C          1 UNL1 0.000
    36 C       2.744770    -0.647230     0.415521 C          1 UNL1 0.000
    37 C       4.144695    -0.628544     0.439469 C          1 UNL1 0.000
    38 C       4.773219     0.620412     0.458262 C          1 UNL1 0.000
    39 C       4.063489     1.819762     0.451210 C          1 UNL1 0.000
    40 C       2.655549     1.774335     0.423807 C          1 UNL1 0.000
    41 N       6.111998     0.942223     0.480561 N          1 UNL1 0.000
    42 C       6.270931     2.303083     0.493843 C          1 UNL1 0.000
    43 C       5.018946     2.873127     0.474531 C          1 UNL1 0.000
    44 H       2.238347    -1.610998     0.395913 H          1 UNL1 0.000
    45 H       4.712661    -1.552707     0.439523 H          1 UNL1 0.000
    46 H       2.090117     2.702277     0.412815 H          1 UNL1 0.000
    47 H       6.862991     0.267150     0.484500 H          1 UNL1 0.000
    48 H       7.257686     2.746015     0.512149 H          1 UNL1 0.000
    49 H       4.808456     3.934594     0.474810 H          1 UNL1 0.000
@<TRIPOS>BOND
     1      1      2   2
     2      2      3   1
     3      3      4   2
     4      4      5   1
     5      5      6   2
     6      6      1   1
     7      4      7   1
     8      7      8   1
     9      8      9   2
    10      9     10   1
    11     10     11   2
    12     11     12   1
    13     12     13   2
    14     13      8   1
    15     14     15   2
    16     15     16   1
    17     16     17   2
    18     17     18   1
    19     18     19   1
    20     19     14   1
    21     18     20   2
    22     20     21   1
    23     21     22   1
    24     22     19   2
    25      7     14   1
    26      1     23   1
    27      2     24   1
    28      3     25   1
    29      5     26   1
    30      6     27   1
    31      9     28   1
    32     10     29   1
    33     11     30   1
    34     12     31   1
    35     13     32   1
    36     15     33   1
    37     16     34   1
    38     35     36   2
    39     36     37   1
    40     37     38   2
    41     38     39   1
    42     39     40   2
    43     40     35   1
    44     38     41   1
    45     41     42   1
    46     42     43   2
    47     43     39   1
    48     36     44   1
    49     37     45   1
    50     40     46   1
    51     41     47   1
    52     42     48   1
    53     43     49   1
    54     17     35   1
