# Produced with molli package
@<TRIPOS>MOLECULE
A_9_M
45 48 0 0 0
SMALL
USER_CHARGES

@<TRIPOS>ATOM
     1 C      -5.174471     4.234802     1.783080 C          1 UNL1 0.000
     2 C      -5.812426     3.114945     1.260939 C          1 UNL1 0.000
     3 C      -5.150518     1.880916     1.220158 C          1 UNL1 0.000
     4 C      -3.857026     1.720188     1.747465 C          1 UNL1 0.000
     5 C      -3.222051     2.883996     2.230650 C          1 UNL1 0.000
     6 C      -3.870299     4.124261     2.249414 C          1 UNL1 0.000
     7 N      -3.183200     0.436753     1.779662 N          1 UNL1 0.000
     8 C      -3.861346    -0.846415     1.836116 C          1 UNL1 0.000
     9 C      -5.166691    -0.993933     2.336901 C          1 UNL1 0.000
    10 C      -5.821329    -2.233043     2.329578 C          1 UNL1 0.000
    11 C      -5.165860    -3.370120     1.870126 C          1 UNL1 0.000
    12 C      -3.852457    -3.271046     1.429824 C          1 UNL1 0.000
    13 C      -3.212410    -2.026848     1.411950 C          1 UNL1 0.000
    14 C      -1.742733     0.430676     1.775123 C          1 UNL1 0.000
    15 C      -1.035382     0.257700     2.973368 C          1 UNL1 0.000
    16 C       0.356577     0.214616     2.964558 C          1 UNL1 0.000
    17 C       1.048183     0.309409     1.755130 C          1 UNL1 0.000
    18 C       0.363055     0.467278     0.538979 C          1 UNL1 0.000
    19 C      -1.037385     0.552853     0.565845 C          1 UNL1 0.000
    20 H      -5.687249     5.192322     1.815950 H          1 UNL1 0.000
    21 H      -6.826873     3.197206     0.879186 H          1 UNL1 0.000
    22 H      -5.668275     1.046044     0.756103 H          1 UNL1 0.000
    23 H      -2.209065     2.843754     2.622098 H          1 UNL1 0.000
    24 H      -3.353638     4.998055     2.638001 H          1 UNL1 0.000
    25 H      -5.700998    -0.147431     2.758319 H          1 UNL1 0.000
    26 H      -6.843844    -2.306012     2.691094 H          1 UNL1 0.000
    27 H      -5.671912    -4.331654     1.866878 H          1 UNL1 0.000
    28 H      -3.320452    -4.156760     1.092460 H          1 UNL1 0.000
    29 H      -2.189709    -2.000350     1.045402 H          1 UNL1 0.000
    30 H      -1.577034     0.164935     3.911394 H          1 UNL1 0.000
    31 H       0.902852     0.095409     3.896435 H          1 UNL1 0.000
    32 H       2.135517     0.256414     1.763602 H          1 UNL1 0.000
    33 H      -1.596555     0.664367    -0.361048 H          1 UNL1 0.000
    34 C       1.097754     0.502403    -0.730268 C          1 UNL1 0.000
    35 C       1.171745     1.677289    -1.492344 C          1 UNL1 0.000
    36 C       1.888165     1.707155    -2.694005 C          1 UNL1 0.000
    37 C       2.535948     0.557216    -3.154811 C          1 UNL1 0.000
    38 C       2.462086    -0.622602    -2.410457 C          1 UNL1 0.000
    39 C       1.749759    -0.647000    -1.207431 C          1 UNL1 0.000
    40 C       3.275868     0.587899    -4.383384 C          1 UNL1 0.000
    41 N       3.877126     0.611154    -5.374369 N          1 UNL1 0.000
    42 H       0.677751     2.583198    -1.144820 H          1 UNL1 0.000
    43 H       1.937412     2.634356    -3.261909 H          1 UNL1 0.000
    44 H       2.955904    -1.528633    -2.756984 H          1 UNL1 0.000
    45 H       1.698672    -1.575907    -0.641144 H          1 UNL1 0.000
@<TRIPOS>BOND
     1      1      2   2
     2      2      3   1
     3      3      4   2
     4      4      5   1
     5      5      6   2
     6      6      1   1
     7      4      7   1
     8      7      8   1
     9      8      9   2
    10      9     10   1
    11     10     11   2
    12     11     12   1
    13     12     13   2
    14     13      8   1
    15     14     15   2
    16     15     16   1
    17     16     17   2
    18     17     18   1
    19     18     19   2
    20     19     14   1
    21      7     14   1
    22      1     20   1
    23      2     21   1
    24      3     22   1
    25      5     23   1
    26      6     24   1
    27      9     25   1
    28     10     26   1
    29     11     27   1
    30     12     28   1
    31     13     29   1
    32     15     30   1
    33     16     31   1
    34     17     32   1
    35     19     33   1
    36     34     35   2
    37     35     36   1
    38     36     37   2
    39     37     38   1
    40     38     39   2
    41     39     34   1
    42     40     41   3
    43     37     40   1
    44     35     42   1
    45     36     43   1
    46     38     44   1
    47     39     45   1
    48     18     34   1
