# Produced with molli package
@<TRIPOS>MOLECULE
A_9_Q
42 45 0 0 0
SMALL
USER_CHARGES

@<TRIPOS>ATOM
     1 C      -5.109511     4.263075     2.045801 C          1 UNL1 0.000
     2 C      -5.696201     3.109409     2.557606 C          1 UNL1 0.000
     3 C      -5.035277     1.879817     2.457587 C          1 UNL1 0.000
     4 C      -3.782989     1.772331     1.827036 C          1 UNL1 0.000
     5 C      -3.204528     2.959202     1.334348 C          1 UNL1 0.000
     6 C      -3.860208     4.189725     1.439537 C          1 UNL1 0.000
     7 N      -3.092843     0.506538     1.713735 N          1 UNL1 0.000
     8 C      -3.776234    -0.762930     1.620449 C          1 UNL1 0.000
     9 C      -5.016413    -0.887782     0.969521 C          1 UNL1 0.000
    10 C      -5.682698    -2.116621     0.903868 C          1 UNL1 0.000
    11 C      -5.112692    -3.252459     1.471472 C          1 UNL1 0.000
    12 C      -3.872544    -3.163021     2.094799 C          1 UNL1 0.000
    13 C      -3.210412    -1.933114     2.163288 C          1 UNL1 0.000
    14 C      -1.655995     0.512847     1.718381 C          1 UNL1 0.000
    15 C      -0.954406     0.698318     2.917665 C          1 UNL1 0.000
    16 C       0.438568     0.713751     2.920938 C          1 UNL1 0.000
    17 C       1.138982     0.575773     1.720572 C          1 UNL1 0.000
    18 C       0.458565     0.414541     0.502001 C          1 UNL1 0.000
    19 C      -0.943591     0.364451     0.517921 C          1 UNL1 0.000
    20 H      -5.621109     5.218471     2.124971 H          1 UNL1 0.000
    21 H      -6.667161     3.163389     3.042813 H          1 UNL1 0.000
    22 H      -5.506655     1.005729     2.899442 H          1 UNL1 0.000
    23 H      -2.234837     2.940983     0.842505 H          1 UNL1 0.000
    24 H      -3.390435     5.086442     1.043810 H          1 UNL1 0.000
    25 H      -5.473995    -0.026181     0.489555 H          1 UNL1 0.000
    26 H      -6.645608    -2.183774     0.404311 H          1 UNL1 0.000
    27 H      -5.630567    -4.206649     1.422645 H          1 UNL1 0.000
    28 H      -3.417635    -4.046974     2.534149 H          1 UNL1 0.000
    29 H      -2.250429    -1.898963     2.671388 H          1 UNL1 0.000
    30 H      -1.501624     0.823682     3.848763 H          1 UNL1 0.000
    31 H       0.977955     0.853043     3.854059 H          1 UNL1 0.000
    32 H       2.226300     0.628249     1.735149 H          1 UNL1 0.000
    33 H      -1.493685     0.253910    -0.414870 H          1 UNL1 0.000
    34 C       1.191933     0.354314    -0.759905 C          1 UNL1 0.000
    35 N       1.163988     1.480614    -1.518453 N          1 UNL1 0.000
    36 C       1.875388     1.435984    -2.668101 C          1 UNL1 0.000
    37 C       2.585260     0.314194    -3.059839 C          1 UNL1 0.000
    38 N       2.617483    -0.816883    -2.320822 N          1 UNL1 0.000
    39 C       1.906716    -0.769413    -1.165516 C          1 UNL1 0.000
    40 H       1.861827     2.337839    -3.269228 H          1 UNL1 0.000
    41 H       3.151421     0.296875    -3.984191 H          1 UNL1 0.000
    42 H       1.927796    -1.673654    -0.566935 H          1 UNL1 0.000
@<TRIPOS>BOND
     1      1      2   2
     2      2      3   1
     3      3      4   2
     4      4      5   1
     5      5      6   2
     6      6      1   1
     7      4      7   1
     8      7      8   1
     9      8      9   2
    10      9     10   1
    11     10     11   2
    12     11     12   1
    13     12     13   2
    14     13      8   1
    15     14     15   2
    16     15     16   1
    17     16     17   2
    18     17     18   1
    19     18     19   2
    20     19     14   1
    21      7     14   1
    22      1     20   1
    23      2     21   1
    24      3     22   1
    25      5     23   1
    26      6     24   1
    27      9     25   1
    28     10     26   1
    29     11     27   1
    30     12     28   1
    31     13     29   1
    32     15     30   1
    33     16     31   1
    34     17     32   1
    35     19     33   1
    36     34     35   2
    37     35     36   1
    38     36     37   2
    39     37     38   1
    40     38     39   2
    41     39     34   1
    42     36     40   1
    43     37     41   1
    44     39     42   1
    45     18     34   1
