# Produced with molli package
@<TRIPOS>MOLECULE
A_9_L
48 52 0 0 0
SMALL
USER_CHARGES

@<TRIPOS>ATOM
     1 C      -5.096557     4.369135     1.920252 C          1 UNL1 0.000
     2 C      -5.723150     3.232948     2.423093 C          1 UNL1 0.000
     3 C      -5.083591     1.988526     2.361677 C          1 UNL1 0.000
     4 C      -3.816866     1.844065     1.769353 C          1 UNL1 0.000
     5 C      -3.198436     3.017261     1.288358 C          1 UNL1 0.000
     6 C      -3.828487     4.263637     1.361563 C          1 UNL1 0.000
     7 N      -3.145936     0.562992     1.684419 N          1 UNL1 0.000
     8 C      -3.836754    -0.707099     1.629605 C          1 UNL1 0.000
     9 C      -5.108972    -0.839355     1.045407 C          1 UNL1 0.000
    10 C      -5.781147    -2.067617     1.029443 C          1 UNL1 0.000
    11 C      -5.181879    -3.200826     1.570532 C          1 UNL1 0.000
    12 C      -3.906791    -3.109282     2.116654 C          1 UNL1 0.000
    13 C      -3.242654    -1.878385     2.142061 C          1 UNL1 0.000
    14 C      -1.707312     0.556664     1.685148 C          1 UNL1 0.000
    15 C      -1.002407     0.736161     2.884066 C          1 UNL1 0.000
    16 C       0.390496     0.753908     2.882531 C          1 UNL1 0.000
    17 C       1.086192     0.630868     1.678326 C          1 UNL1 0.000
    18 C       0.401690     0.478023     0.462172 C          1 UNL1 0.000
    19 C      -0.999062     0.413353     0.481222 C          1 UNL1 0.000
    20 H      -5.590731     5.335501     1.971751 H          1 UNL1 0.000
    21 H      -6.709390     3.312012     2.872919 H          1 UNL1 0.000
    22 H      -5.587815     1.133933     2.804690 H          1 UNL1 0.000
    23 H      -2.212063     2.977974     0.833605 H          1 UNL1 0.000
    24 H      -3.323954     5.146822     0.978610 H          1 UNL1 0.000
    25 H      -5.592515     0.014437     0.577947 H          1 UNL1 0.000
    26 H      -6.771690    -2.136370     0.587427 H          1 UNL1 0.000
    27 H      -5.702487    -4.154595     1.558085 H          1 UNL1 0.000
    28 H      -3.424125    -3.991740     2.528550 H          1 UNL1 0.000
    29 H      -2.252561    -1.848158     2.589258 H          1 UNL1 0.000
    30 H      -1.546861     0.852338     3.817729 H          1 UNL1 0.000
    31 H       0.934024     0.880606     3.814802 H          1 UNL1 0.000
    32 H       2.173761     0.676567     1.685635 H          1 UNL1 0.000
    33 H      -1.551332     0.294831    -0.448852 H          1 UNL1 0.000
    34 C       1.137773     0.451802    -0.804511 C          1 UNL1 0.000
    35 C       1.284016     1.630093    -1.552625 C          1 UNL1 0.000
    36 C       2.002008     1.660274    -2.753169 C          1 UNL1 0.000
    37 C       2.574845     0.462862    -3.189250 C          1 UNL1 0.000
    38 C       2.450252    -0.733142    -2.482074 C          1 UNL1 0.000
    39 C       1.721830    -0.737142    -1.274995 C          1 UNL1 0.000
    40 N       3.328268     0.194510    -4.309213 N          1 UNL1 0.000
    41 C       3.682497    -1.127573    -4.337262 C          1 UNL1 0.000
    42 C       3.150587    -1.728416    -3.218257 C          1 UNL1 0.000
    43 H       0.835746     2.554364    -1.190446 H          1 UNL1 0.000
    44 H       2.108671     2.582649    -3.314512 H          1 UNL1 0.000
    45 H       1.616818    -1.659924    -0.710878 H          1 UNL1 0.000
    46 H       3.581199     0.881808    -5.007106 H          1 UNL1 0.000
    47 H       4.279116    -1.525608    -5.146340 H          1 UNL1 0.000
    48 H       3.254167    -2.772093    -2.953507 H          1 UNL1 0.000
@<TRIPOS>BOND
     1      1      2   2
     2      2      3   1
     3      3      4   2
     4      4      5   1
     5      5      6   2
     6      6      1   1
     7      4      7   1
     8      7      8   1
     9      8      9   2
    10      9     10   1
    11     10     11   2
    12     11     12   1
    13     12     13   2
    14     13      8   1
    15     14     15   2
    16     15     16   1
    17     16     17   2
    18     17     18   1
    19     18     19   2
    20     19     14   1
    21      7     14   1
    22      1     20   1
    23      2     21   1
    24      3     22   1
    25      5     23   1
    26      6     24   1
    27      9     25   1
    28     10     26   1
    29     11     27   1
    30     12     28   1
    31     13     29   1
    32     15     30   1
    33     16     31   1
    34     17     32   1
    35     19     33   1
    36     34     35   2
    37     35     36   1
    38     36     37   2
    39     37     38   1
    40     38     39   2
    41     39     34   1
    42     37     40   1
    43     40     41   1
    44     41     42   2
    45     42     38   1
    46     35     43   1
    47     36     44   1
    48     39     45   1
    49     40     46   1
    50     41     47   1
    51     42     48   1
    52     18     34   1
