# Produced with molli package
@<TRIPOS>MOLECULE
A_9_N
41 44 0 0 0
SMALL
USER_CHARGES

@<TRIPOS>ATOM
     1 C      -5.343216     4.289029     2.106994 C          1 UNL1 0.000
     2 C      -5.897518     3.127383     2.637821 C          1 UNL1 0.000
     3 C      -5.216148     1.909848     2.531271 C          1 UNL1 0.000
     4 C      -3.974262     1.825295     1.878406 C          1 UNL1 0.000
     5 C      -3.427807     3.018800     1.365982 C          1 UNL1 0.000
     6 C      -4.105244     4.236562     1.475410 C          1 UNL1 0.000
     7 N      -3.263726     0.572493     1.756396 N          1 UNL1 0.000
     8 C      -3.930244    -0.699505     1.606906 C          1 UNL1 0.000
     9 C      -5.164499    -0.813294     0.942743 C          1 UNL1 0.000
    10 C      -5.811957    -2.047349     0.819398 C          1 UNL1 0.000
    11 C      -5.229792    -3.197566     1.344030 C          1 UNL1 0.000
    12 C      -3.996944    -3.116577     1.983552 C          1 UNL1 0.000
    13 C      -3.352922    -1.881677     2.109182 C          1 UNL1 0.000
    14 C      -1.826820     0.603683     1.769321 C          1 UNL1 0.000
    15 C      -1.137342     0.887031     2.958238 C          1 UNL1 0.000
    16 C       0.254787     0.965438     2.964117 C          1 UNL1 0.000
    17 C       0.965786     0.799278     1.774829 C          1 UNL1 0.000
    18 C       0.289442     0.528875     0.578779 C          1 UNL1 0.000
    19 C      -1.104352     0.404491     0.583158 C          1 UNL1 0.000
    20 H      -5.872212     5.234681     2.189917 H          1 UNL1 0.000
    21 H      -6.859700     3.166257     3.141648 H          1 UNL1 0.000
    22 H      -5.660982     1.026613     2.982735 H          1 UNL1 0.000
    23 H      -2.468953     3.012372     0.853739 H          1 UNL1 0.000
    24 H      -3.662980     5.139662     1.062966 H          1 UNL1 0.000
    25 H      -5.631421     0.061086     0.496145 H          1 UNL1 0.000
    26 H      -6.769406    -2.107049     0.308486 H          1 UNL1 0.000
    27 H      -5.733036    -4.156187     1.249814 H          1 UNL1 0.000
    28 H      -3.533860    -4.011607     2.390736 H          1 UNL1 0.000
    29 H      -2.398144    -1.852253     2.628120 H          1 UNL1 0.000
    30 H      -1.692918     1.040779     3.880160 H          1 UNL1 0.000
    31 H       0.783228     1.173073     3.890806 H          1 UNL1 0.000
    32 H       2.049928     0.887937     1.785089 H          1 UNL1 0.000
    33 H      -1.644162     0.215457    -0.341962 H          1 UNL1 0.000
    34 C       1.028184     0.458189    -0.670562 C          1 UNL1 0.000
    35 C       1.051923    -0.684997    -1.443781 C          1 UNL1 0.000
    36 S       1.981984    -0.485670    -2.868605 S          1 UNL1 0.000
    37 C       2.353740     1.134863    -2.467515 C          1 UNL1 0.000
    38 C       1.789852     1.511572    -1.268859 C          1 UNL1 0.000
    39 H       0.573314    -1.634599    -1.245755 H          1 UNL1 0.000
    40 H       2.964476     1.734148    -3.128814 H          1 UNL1 0.000
    41 H       1.902832     2.503061    -0.846459 H          1 UNL1 0.000
@<TRIPOS>BOND
     1      1      2   2
     2      2      3   1
     3      3      4   2
     4      4      5   1
     5      5      6   2
     6      6      1   1
     7      4      7   1
     8      7      8   1
     9      8      9   2
    10      9     10   1
    11     10     11   2
    12     11     12   1
    13     12     13   2
    14     13      8   1
    15     14     15   2
    16     15     16   1
    17     16     17   2
    18     17     18   1
    19     18     19   2
    20     19     14   1
    21      7     14   1
    22      1     20   1
    23      2     21   1
    24      3     22   1
    25      5     23   1
    26      6     24   1
    27      9     25   1
    28     10     26   1
    29     11     27   1
    30     12     28   1
    31     13     29   1
    32     15     30   1
    33     16     31   1
    34     17     32   1
    35     19     33   1
    36     34     35   2
    37     35     36   1
    38     36     37   1
    39     37     38   2
    40     38     34   1
    41     35     39   1
    42     37     40   1
    43     38     41   1
    44     18     34   1
