# Produced with molli package
@<TRIPOS>MOLECULE
A_9_R
45 48 0 0 0
SMALL
USER_CHARGES

@<TRIPOS>ATOM
     1 C      -5.177420     4.427936     1.404044 C          1 UNL1 0.000
     2 C      -5.794724     3.295831     0.881429 C          1 UNL1 0.000
     3 C      -5.147816     2.054618     0.929119 C          1 UNL1 0.000
     4 C      -3.884945     1.907960     1.529873 C          1 UNL1 0.000
     5 C      -3.271051     3.078632     2.020566 C          1 UNL1 0.000
     6 C      -3.908998     4.322201     1.962358 C          1 UNL1 0.000
     7 N      -3.222280     0.624742     1.623012 N          1 UNL1 0.000
     8 C      -3.919037    -0.641883     1.734321 C          1 UNL1 0.000
     9 C      -5.205475    -0.746763     2.291057 C          1 UNL1 0.000
    10 C      -5.865211    -1.979407     2.379879 C          1 UNL1 0.000
    11 C      -5.239953    -3.143418     1.943725 C          1 UNL1 0.000
    12 C      -3.953637    -3.077266     1.422807 C          1 UNL1 0.000
    13 C      -3.304327    -1.842779     1.319512 C          1 UNL1 0.000
    14 C      -1.784046     0.602518     1.667511 C          1 UNL1 0.000
    15 C      -1.121166     0.441870     2.892995 C          1 UNL1 0.000
    16 C       0.269268     0.381052     2.935773 C          1 UNL1 0.000
    17 C       1.003267     0.433200     1.749459 C          1 UNL1 0.000
    18 C       0.361548     0.566536     0.506246 C          1 UNL1 0.000
    19 C      -1.036155     0.688964     0.482117 C          1 UNL1 0.000
    20 H      -5.677959     5.391757     1.366861 H          1 UNL1 0.000
    21 H      -6.779828     3.375616     0.429179 H          1 UNL1 0.000
    22 H      -5.644935     1.202083     0.473946 H          1 UNL1 0.000
    23 H      -2.284790     3.040316     2.475542 H          1 UNL1 0.000
    24 H      -3.410576     5.203390     2.358024 H          1 UNL1 0.000
    25 H      -5.711759     0.129484     2.686602 H          1 UNL1 0.000
    26 H      -6.866555    -2.027261     2.800008 H          1 UNL1 0.000
    27 H      -5.749628    -4.100261     2.018276 H          1 UNL1 0.000
    28 H      -3.450039    -3.982249     1.093208 H          1 UNL1 0.000
    29 H      -2.303872    -1.836485     0.895806 H          1 UNL1 0.000
    30 H      -1.697213     0.377428     3.812850 H          1 UNL1 0.000
    31 H       0.779842     0.279726     3.889664 H          1 UNL1 0.000
    32 H       2.088628     0.365553     1.796294 H          1 UNL1 0.000
    33 H      -1.556087     0.801559    -0.467332 H          1 UNL1 0.000
    34 C       1.129712     0.508939    -0.737953 C          1 UNL1 0.000
    35 N       1.279177     1.677429    -1.411088 N          1 UNL1 0.000
    36 C       2.002999     1.650565    -2.558664 C          1 UNL1 0.000
    37 C       2.567956     0.492324    -3.066199 C          1 UNL1 0.000
    38 C       2.401096    -0.709300    -2.381257 C          1 UNL1 0.000
    39 C       1.673714    -0.695992    -1.192782 C          1 UNL1 0.000
    40 N       3.325588     0.542989    -4.300461 N          1 UNL1 0.000
    41 O       3.347325    -0.480777    -4.997866 O          1 UNL1 0.000
    42 O       3.906346     1.601854    -4.572329 O          1 UNL1 0.000
    43 H       2.101586     2.612268    -3.055984 H          1 UNL1 0.000
    44 H       2.826857    -1.639382    -2.749231 H          1 UNL1 0.000
    45 H       1.525633    -1.614053    -0.630615 H          1 UNL1 0.000
@<TRIPOS>BOND
     1      1      2   2
     2      2      3   1
     3      3      4   2
     4      4      5   1
     5      5      6   2
     6      6      1   1
     7      4      7   1
     8      7      8   1
     9      8      9   2
    10      9     10   1
    11     10     11   2
    12     11     12   1
    13     12     13   2
    14     13      8   1
    15     14     15   2
    16     15     16   1
    17     16     17   2
    18     17     18   1
    19     18     19   2
    20     19     14   1
    21      7     14   1
    22      1     20   1
    23      2     21   1
    24      3     22   1
    25      5     23   1
    26      6     24   1
    27      9     25   1
    28     10     26   1
    29     11     27   1
    30     12     28   1
    31     13     29   1
    32     15     30   1
    33     16     31   1
    34     17     32   1
    35     19     33   1
    36     34     35   2
    37     35     36   1
    38     36     37   2
    39     37     38   1
    40     38     39   2
    41     39     34   1
    42     40     41   2
    43     40     42   1
    44     37     40   1
    45     36     43   1
    46     38     44   1
    47     39     45   1
    48     18     34   1
