# Produced with molli package
@<TRIPOS>MOLECULE
A_9_K
46 49 0 0 0
SMALL
USER_CHARGES

@<TRIPOS>ATOM
     1 C      -5.108913     4.268687     2.024118 C          1 UNL1 0.000
     2 C      -5.714260     3.124677     2.535601 C          1 UNL1 0.000
     3 C      -5.073708     1.882609     2.439188 C          1 UNL1 0.000
     4 C      -3.828473     1.748806     1.801713 C          1 UNL1 0.000
     5 C      -3.231964     2.929659     1.310007 C          1 UNL1 0.000
     6 C      -3.861556     4.173452     1.419498 C          1 UNL1 0.000
     7 N      -3.149457     0.473948     1.684684 N          1 UNL1 0.000
     8 C      -3.824919    -0.805711     1.637729 C          1 UNL1 0.000
     9 C      -5.127575    -0.946823     1.127798 C          1 UNL1 0.000
    10 C      -5.780734    -2.185991     1.122700 C          1 UNL1 0.000
    11 C      -5.132031    -3.322369     1.595544 C          1 UNL1 0.000
    12 C      -3.827356    -3.222749     2.063541 C          1 UNL1 0.000
    13 C      -3.183424    -1.980962     2.081923 C          1 UNL1 0.000
    14 C      -1.710571     0.486633     1.675729 C          1 UNL1 0.000
    15 C      -1.001805     0.673854     2.871276 C          1 UNL1 0.000
    16 C       0.390223     0.711706     2.862380 C          1 UNL1 0.000
    17 C       1.080707     0.600159     1.654317 C          1 UNL1 0.000
    18 C       0.391673     0.435821     0.442048 C          1 UNL1 0.000
    19 C      -1.007708     0.351917     0.467655 C          1 UNL1 0.000
    20 H      -5.603083     5.233150     2.104941 H          1 UNL1 0.000
    21 H      -6.684164     3.196458     3.020972 H          1 UNL1 0.000
    22 H      -5.558963     1.023021     2.893313 H          1 UNL1 0.000
    23 H      -2.262240     2.898735     0.820367 H          1 UNL1 0.000
    24 H      -3.372921     5.062707     1.029883 H          1 UNL1 0.000
    25 H      -5.654219    -0.092361     0.711211 H          1 UNL1 0.000
    26 H      -6.796407    -2.260550     0.742708 H          1 UNL1 0.000
    27 H      -5.637947    -4.284149     1.591058 H          1 UNL1 0.000
    28 H      -3.306031    -4.106938     2.421150 H          1 UNL1 0.000
    29 H      -2.168633    -1.947747     2.469623 H          1 UNL1 0.000
    30 H      -1.543089     0.780375     3.808171 H          1 UNL1 0.000
    31 H       0.936187     0.843992     3.792616 H          1 UNL1 0.000
    32 H       2.167612     0.658995     1.658733 H          1 UNL1 0.000
    33 H      -1.565927     0.227967    -0.458131 H          1 UNL1 0.000
    34 C       1.121993     0.413779    -0.826649 C          1 UNL1 0.000
    35 C       1.411360     1.619008    -1.491051 C          1 UNL1 0.000
    36 C       2.130784     1.624121    -2.688190 C          1 UNL1 0.000
    37 C       2.561408     0.408781    -3.229961 C          1 UNL1 0.000
    38 C       2.276044    -0.803709    -2.591169 C          1 UNL1 0.000
    39 C       1.558380    -0.794787    -1.390993 C          1 UNL1 0.000
    40 N       3.326671     0.407934    -4.477677 N          1 UNL1 0.000
    41 O       3.924711     1.448423    -4.784644 O          1 UNL1 0.000
    42 O       3.330361    -0.635097    -5.147661 O          1 UNL1 0.000
    43 H       1.076418     2.565385    -1.067970 H          1 UNL1 0.000
    44 H       2.344112     2.570989    -3.179503 H          1 UNL1 0.000
    45 H       2.609300    -1.752355    -3.006719 H          1 UNL1 0.000
    46 H       1.343054    -1.737426    -0.890135 H          1 UNL1 0.000
@<TRIPOS>BOND
     1      1      2   2
     2      2      3   1
     3      3      4   2
     4      4      5   1
     5      5      6   2
     6      6      1   1
     7      4      7   1
     8      7      8   1
     9      8      9   2
    10      9     10   1
    11     10     11   2
    12     11     12   1
    13     12     13   2
    14     13      8   1
    15     14     15   2
    16     15     16   1
    17     16     17   2
    18     17     18   1
    19     18     19   2
    20     19     14   1
    21      7     14   1
    22      1     20   1
    23      2     21   1
    24      3     22   1
    25      5     23   1
    26      6     24   1
    27      9     25   1
    28     10     26   1
    29     11     27   1
    30     12     28   1
    31     13     29   1
    32     15     30   1
    33     16     31   1
    34     17     32   1
    35     19     33   1
    36     34     35   2
    37     35     36   1
    38     36     37   2
    39     37     38   1
    40     38     39   2
    41     39     34   1
    42     40     41   2
    43     40     42   1
    44     37     40   1
    45     35     43   1
    46     36     44   1
    47     38     45   1
    48     39     46   1
    49     18     34   1
