# Produced with molli package
@<TRIPOS>MOLECULE
A_9_S
49 52 0 0 0
SMALL
USER_CHARGES

@<TRIPOS>ATOM
     1 C      -5.134219     4.352413     1.473913 C          1 UNL1 0.000
     2 C      -5.757991     3.216868     0.966439 C          1 UNL1 0.000
     3 C      -5.107699     1.977972     1.009495 C          1 UNL1 0.000
     4 C      -3.832023     1.839408     1.585090 C          1 UNL1 0.000
     5 C      -3.213531     3.011093     2.065511 C          1 UNL1 0.000
     6 C      -3.856980     4.252075     2.014255 C          1 UNL1 0.000
     7 N      -3.165493     0.558908     1.665819 N          1 UNL1 0.000
     8 C      -3.865603    -0.702735     1.783018 C          1 UNL1 0.000
     9 C      -5.109008    -0.809376     2.429733 C          1 UNL1 0.000
    10 C      -5.774935    -2.036963     2.528187 C          1 UNL1 0.000
    11 C      -5.199774    -3.190779     2.003477 C          1 UNL1 0.000
    12 C      -3.956830    -3.120044     1.384963 C          1 UNL1 0.000
    13 C      -3.298790    -1.891092     1.277823 C          1 UNL1 0.000
    14 C      -1.727524     0.529947     1.676935 C          1 UNL1 0.000
    15 C      -1.038211     0.298546     2.875731 C          1 UNL1 0.000
    16 C       0.352555     0.231457     2.882813 C          1 UNL1 0.000
    17 C       1.060351     0.355152     1.685766 C          1 UNL1 0.000
    18 C       0.392677     0.565668     0.467732 C          1 UNL1 0.000
    19 C      -1.005466     0.683402     0.481999 C          1 UNL1 0.000
    20 H      -5.638597     5.314476     1.441475 H          1 UNL1 0.000
    21 H      -6.751048     3.291680     0.530979 H          1 UNL1 0.000
    22 H      -5.611211     1.119836     0.571707 H          1 UNL1 0.000
    23 H      -2.222023     2.972584     2.509187 H          1 UNL1 0.000
    24 H      -3.357652     5.135957     2.402646 H          1 UNL1 0.000
    25 H      -5.570473     0.062446     2.886039 H          1 UNL1 0.000
    26 H      -6.741103    -2.089628     3.023212 H          1 UNL1 0.000
    27 H      -5.715163    -4.144169     2.083035 H          1 UNL1 0.000
    28 H      -3.494720    -4.017275     0.981678 H          1 UNL1 0.000
    29 H      -2.334530    -1.874549     0.776469 H          1 UNL1 0.000
    30 H      -1.593071     0.179545     3.803052 H          1 UNL1 0.000
    31 H       0.884185     0.067669     3.816289 H          1 UNL1 0.000
    32 H       2.146049     0.278488     1.704338 H          1 UNL1 0.000
    33 H      -1.550253     0.837958    -0.447296 H          1 UNL1 0.000
    34 C       1.138992     0.600966    -0.794531 C          1 UNL1 0.000
    35 C       1.251216     1.777942    -1.544285 C          1 UNL1 0.000
    36 C       1.977168     1.794815    -2.740959 C          1 UNL1 0.000
    37 C       2.597026     0.631607    -3.218014 C          1 UNL1 0.000
    38 C       2.473974    -0.552462    -2.485623 C          1 UNL1 0.000
    39 C       1.757059    -0.561762    -1.283267 C          1 UNL1 0.000
    40 C       3.366647     0.708537    -4.496698 C          1 UNL1 0.000
    41 C       4.022052    -0.533244    -5.044359 C          1 UNL1 0.000
    42 O       3.437495     1.776694    -5.103058 O          1 UNL1 0.000
    43 H       0.781304     2.695975    -1.196118 H          1 UNL1 0.000
    44 H       2.055715     2.726144    -3.299749 H          1 UNL1 0.000
    45 H       2.920972    -1.483655    -2.819002 H          1 UNL1 0.000
    46 H       1.672720    -1.493730    -0.725693 H          1 UNL1 0.000
    47 H       3.270864    -1.166119    -5.523525 H          1 UNL1 0.000
    48 H       4.553200    -1.083418    -4.264536 H          1 UNL1 0.000
    49 H       4.767321    -0.241483    -5.791405 H          1 UNL1 0.000
@<TRIPOS>BOND
     1      1      2   2
     2      2      3   1
     3      3      4   2
     4      4      5   1
     5      5      6   2
     6      6      1   1
     7      4      7   1
     8      7      8   1
     9      8      9   2
    10      9     10   1
    11     10     11   2
    12     11     12   1
    13     12     13   2
    14     13      8   1
    15     14     15   2
    16     15     16   1
    17     16     17   2
    18     17     18   1
    19     18     19   2
    20     19     14   1
    21      7     14   1
    22      1     20   1
    23      2     21   1
    24      3     22   1
    25      5     23   1
    26      6     24   1
    27      9     25   1
    28     10     26   1
    29     11     27   1
    30     12     28   1
    31     13     29   1
    32     15     30   1
    33     16     31   1
    34     17     32   1
    35     19     33   1
    36     34     35   2
    37     35     36   1
    38     36     37   2
    39     37     38   1
    40     38     39   2
    41     39     34   1
    42     37     40   1
    43     40     41   1
    44     40     42   2
    45     35     43   1
    46     36     44   1
    47     38     45   1
    48     39     46   1
    49     41     47   1
    50     41     48   1
    51     41     49   1
    52     18     34   1
