# Produced with molli package
@<TRIPOS>MOLECULE
A_9_P
48 51 0 0 0
SMALL
USER_CHARGES

@<TRIPOS>ATOM
     1 C      -5.126726     4.345951     1.951309 C          1 UNL1 0.000
     2 C      -5.711714     3.214555     2.511988 C          1 UNL1 0.000
     3 C      -5.063600     1.976613     2.437196 C          1 UNL1 0.000
     4 C      -3.825421     1.838755     1.784604 C          1 UNL1 0.000
     5 C      -3.246436     3.004150     1.245076 C          1 UNL1 0.000
     6 C      -3.890150     4.242857     1.322933 C          1 UNL1 0.000
     7 N      -3.152122     0.562369     1.694216 N          1 UNL1 0.000
     8 C      -3.855294    -0.697523     1.621062 C          1 UNL1 0.000
     9 C      -5.105148    -0.807677     0.984640 C          1 UNL1 0.000
    10 C      -5.793882    -2.024812     0.939302 C          1 UNL1 0.000
    11 C      -5.238353    -3.164028     1.513317 C          1 UNL1 0.000
    12 C      -3.989352    -3.090009     2.121666 C          1 UNL1 0.000
    13 C      -3.304078    -1.871617     2.168872 C          1 UNL1 0.000
    14 C      -1.715112     0.551146     1.698489 C          1 UNL1 0.000
    15 C      -1.011503     0.721419     2.898983 C          1 UNL1 0.000
    16 C       0.382021     0.728304     2.900549 C          1 UNL1 0.000
    17 C       1.080137     0.604928     1.697798 C          1 UNL1 0.000
    18 C       0.397323     0.463251     0.479607 C          1 UNL1 0.000
    19 C      -1.004397     0.408534     0.496493 C          1 UNL1 0.000
    20 H      -5.629486     5.307539     2.009390 H          1 UNL1 0.000
    21 H      -6.672050     3.292254     3.015137 H          1 UNL1 0.000
    22 H      -5.532377     1.119898     2.914393 H          1 UNL1 0.000
    23 H      -2.287094     2.960965     0.736076 H          1 UNL1 0.000
    24 H      -3.422744     5.122746     0.889034 H          1 UNL1 0.000
    25 H      -5.552770     0.056263     0.499923 H          1 UNL1 0.000
    26 H      -6.762950    -2.079808     0.450001 H          1 UNL1 0.000
    27 H      -5.773398    -4.109316     1.480431 H          1 UNL1 0.000
    28 H      -3.545143    -3.977332     2.564787 H          1 UNL1 0.000
    29 H      -2.336544    -1.850364     2.663545 H          1 UNL1 0.000
    30 H      -1.556661     0.837084     3.832203 H          1 UNL1 0.000
    31 H       0.923752     0.846112     3.835173 H          1 UNL1 0.000
    32 H       2.167962     0.641694     1.709200 H          1 UNL1 0.000
    33 H      -1.555664     0.295566    -0.435024 H          1 UNL1 0.000
    34 C       1.132580     0.430381    -0.786606 C          1 UNL1 0.000
    35 C       1.237930     1.590962    -1.573241 C          1 UNL1 0.000
    36 C       1.948141     1.579340    -2.775193 C          1 UNL1 0.000
    37 C       2.568001     0.405252    -3.191353 C          1 UNL1 0.000
    38 C       2.453790    -0.763153    -2.442764 C          1 UNL1 0.000
    39 C       1.746258    -0.747528    -1.238411 C          1 UNL1 0.000
    40 O       3.237978     0.373592    -4.383213 O          1 UNL1 0.000
    41 C       4.597541     0.763605    -4.187548 C          1 UNL1 0.000
    42 H       0.762132     2.513875    -1.246781 H          1 UNL1 0.000
    43 H       2.012186     2.478297    -3.380628 H          1 UNL1 0.000
    44 H       2.912072    -1.682442    -2.795100 H          1 UNL1 0.000
    45 H       1.665707    -1.662319    -0.655497 H          1 UNL1 0.000
    46 H       5.126330     0.621112    -5.134777 H          1 UNL1 0.000
    47 H       5.089047     0.142718    -3.429879 H          1 UNL1 0.000
    48 H       4.665912     1.822585    -3.915876 H          1 UNL1 0.000
@<TRIPOS>BOND
     1      1      2   2
     2      2      3   1
     3      3      4   2
     4      4      5   1
     5      5      6   2
     6      6      1   1
     7      4      7   1
     8      7      8   1
     9      8      9   2
    10      9     10   1
    11     10     11   2
    12     11     12   1
    13     12     13   2
    14     13      8   1
    15     14     15   2
    16     15     16   1
    17     16     17   2
    18     17     18   1
    19     18     19   2
    20     19     14   1
    21      7     14   1
    22      1     20   1
    23      2     21   1
    24      3     22   1
    25      5     23   1
    26      6     24   1
    27      9     25   1
    28     10     26   1
    29     11     27   1
    30     12     28   1
    31     13     29   1
    32     15     30   1
    33     16     31   1
    34     17     32   1
    35     19     33   1
    36     34     35   2
    37     35     36   1
    38     36     37   2
    39     37     38   1
    40     38     39   2
    41     39     34   1
    42     40     41   1
    43     37     40   1
    44     35     42   1
    45     36     43   1
    46     38     44   1
    47     39     45   1
    48     41     46   1
    49     41     47   1
    50     41     48   1
    51     18     34   1
