# Produced with molli package
@<TRIPOS>MOLECULE
A_9_O
43 46 0 0 0
SMALL
USER_CHARGES

@<TRIPOS>ATOM
     1 C      -5.247528     4.175834     2.234820 C          1 UNL1 0.000
     2 C      -5.811526     3.013802     2.753221 C          1 UNL1 0.000
     3 C      -5.137249     1.792686     2.639146 C          1 UNL1 0.000
     4 C      -3.894264     1.702135     1.987768 C          1 UNL1 0.000
     5 C      -3.338662     2.897174     1.488647 C          1 UNL1 0.000
     6 C      -4.007563     4.119275     1.607871 C          1 UNL1 0.000
     7 N      -3.190507     0.445227     1.859834 N          1 UNL1 0.000
     8 C      -3.859606    -0.832137     1.773797 C          1 UNL1 0.000
     9 C      -5.108622    -0.970435     1.142772 C          1 UNL1 0.000
    10 C      -5.761335    -2.206917     1.085252 C          1 UNL1 0.000
    11 C      -5.168818    -3.336971     1.641258 C          1 UNL1 0.000
    12 C      -3.919702    -3.234033     2.244397 C          1 UNL1 0.000
    13 C      -3.271031    -1.996528     2.304532 C          1 UNL1 0.000
    14 C      -1.753695     0.469802     1.840256 C          1 UNL1 0.000
    15 C      -1.034768     0.666318     3.027799 C          1 UNL1 0.000
    16 C       0.357750     0.704000     3.007613 C          1 UNL1 0.000
    17 C       1.039386     0.577972     1.795281 C          1 UNL1 0.000
    18 C       0.341090     0.405678     0.588691 C          1 UNL1 0.000
    19 C      -1.059426     0.331654     0.628105 C          1 UNL1 0.000
    20 H      -5.769299     5.124708     2.324786 H          1 UNL1 0.000
    21 H      -6.774912     3.054632     3.254452 H          1 UNL1 0.000
    22 H      -5.590268     0.911693     3.086355 H          1 UNL1 0.000
    23 H      -2.376921     2.891730     0.980741 H          1 UNL1 0.000
    24 H      -3.555066     5.022407     1.206651 H          1 UNL1 0.000
    25 H      -5.583657    -0.113154     0.672107 H          1 UNL1 0.000
    26 H      -6.731282    -2.284286     0.601102 H          1 UNL1 0.000
    27 H      -5.676168    -4.297048     1.598945 H          1 UNL1 0.000
    28 H      -3.447055    -4.113170     2.674431 H          1 UNL1 0.000
    29 H      -2.302902    -1.951354     2.796177 H          1 UNL1 0.000
    30 H      -1.568049     0.784038     3.967752 H          1 UNL1 0.000
    31 H       0.911058     0.852249     3.930884 H          1 UNL1 0.000
    32 H       2.125478     0.647563     1.787346 H          1 UNL1 0.000
    33 H      -1.620909     0.213029    -0.296522 H          1 UNL1 0.000
    34 C       1.055532     0.359630    -0.687200 C          1 UNL1 0.000
    35 N       1.023626     1.506008    -1.410824 N          1 UNL1 0.000
    36 C       1.697158     1.520711    -2.581151 C          1 UNL1 0.000
    37 C       2.402827     0.438026    -3.076474 C          1 UNL1 0.000
    38 C       2.419240    -0.732666    -2.327838 C          1 UNL1 0.000
    39 C       1.738815    -0.775948    -1.112882 C          1 UNL1 0.000
    40 H       1.654183     2.459337    -3.126022 H          1 UNL1 0.000
    41 H       2.926516     0.506511    -4.023401 H          1 UNL1 0.000
    42 H       2.958592    -1.605046    -2.684988 H          1 UNL1 0.000
    43 H       1.740088    -1.679378    -0.512371 H          1 UNL1 0.000
@<TRIPOS>BOND
     1      1      2   2
     2      2      3   1
     3      3      4   2
     4      4      5   1
     5      5      6   2
     6      6      1   1
     7      4      7   1
     8      7      8   1
     9      8      9   2
    10      9     10   1
    11     10     11   2
    12     11     12   1
    13     12     13   2
    14     13      8   1
    15     14     15   2
    16     15     16   1
    17     16     17   2
    18     17     18   1
    19     18     19   2
    20     19     14   1
    21      7     14   1
    22      1     20   1
    23      2     21   1
    24      3     22   1
    25      5     23   1
    26      6     24   1
    27      9     25   1
    28     10     26   1
    29     11     27   1
    30     12     28   1
    31     13     29   1
    32     15     30   1
    33     16     31   1
    34     17     32   1
    35     19     33   1
    36     34     35   2
    37     35     36   1
    38     36     37   2
    39     37     38   1
    40     38     39   2
    41     39     34   1
    42     36     40   1
    43     37     41   1
    44     38     42   1
    45     39     43   1
    46     18     34   1
