# Produced with molli package
@<TRIPOS>MOLECULE
A_9_T
47 50 0 0 0
SMALL
USER_CHARGES

@<TRIPOS>ATOM
     1 C      -5.275555     4.248207     2.170679 C          1 UNL1 0.000
     2 C      -5.815661     3.080850     2.703373 C          1 UNL1 0.000
     3 C      -5.137098     1.864358     2.565994 C          1 UNL1 0.000
     4 C      -3.915213     1.784227     1.876059 C          1 UNL1 0.000
     5 C      -3.382779     2.984405     1.363089 C          1 UNL1 0.000
     6 C      -4.055182     4.201867     1.506068 C          1 UNL1 0.000
     7 N      -3.203367     0.534687     1.721681 N          1 UNL1 0.000
     8 C      -3.860486    -0.749159     1.621849 C          1 UNL1 0.000
     9 C      -5.140263    -0.885212     1.055431 C          1 UNL1 0.000
    10 C      -5.778990    -2.128910     0.987621 C          1 UNL1 0.000
    11 C      -5.140491    -3.270167     1.463954 C          1 UNL1 0.000
    12 C      -3.860889    -3.170294     1.998410 C          1 UNL1 0.000
    13 C      -3.228019    -1.925231     2.072613 C          1 UNL1 0.000
    14 C      -1.766093     0.575439     1.719862 C          1 UNL1 0.000
    15 C      -1.066842     0.792080     2.916086 C          1 UNL1 0.000
    16 C       0.325149     0.840712     2.916599 C          1 UNL1 0.000
    17 C       1.025425     0.710417     1.716062 C          1 UNL1 0.000
    18 C       0.346548     0.520658     0.501961 C          1 UNL1 0.000
    19 C      -1.052606     0.427612     0.519516 C          1 UNL1 0.000
    20 H      -5.800992     5.193209     2.279487 H          1 UNL1 0.000
    21 H      -6.763381     3.114480     3.234108 H          1 UNL1 0.000
    22 H      -5.569192     0.979137     3.025710 H          1 UNL1 0.000
    23 H      -2.437167     2.984223     0.827129 H          1 UNL1 0.000
    24 H      -3.621704     5.109744     1.094630 H          1 UNL1 0.000
    25 H      -5.654722    -0.020868     0.642953 H          1 UNL1 0.000
    26 H      -6.773934    -2.203180     0.556846 H          1 UNL1 0.000
    27 H      -5.635663    -4.236073     1.411705 H          1 UNL1 0.000
    28 H      -3.350474    -4.057843     2.363423 H          1 UNL1 0.000
    29 H      -2.233465    -1.886805     2.509229 H          1 UNL1 0.000
    30 H      -1.614708     0.909085     3.847759 H          1 UNL1 0.000
    31 H       0.863981     0.994352     3.847504 H          1 UNL1 0.000
    32 H       2.111813     0.777390     1.724522 H          1 UNL1 0.000
    33 H      -1.600094     0.279905    -0.409133 H          1 UNL1 0.000
    34 C       1.087575     0.481079    -0.760453 C          1 UNL1 0.000
    35 C       1.662105    -0.706345    -1.230010 C          1 UNL1 0.000
    36 C       2.396454    -0.721854    -2.420733 C          1 UNL1 0.000
    37 C       2.567406     0.450515    -3.165328 C          1 UNL1 0.000
    38 C       1.991989     1.638363    -2.702796 C          1 UNL1 0.000
    39 C       1.258113     1.651735    -1.514209 C          1 UNL1 0.000
    40 C       3.373974     0.454868    -4.429832 C          1 UNL1 0.000
    41 H       1.543921    -1.628606    -0.665333 H          1 UNL1 0.000
    42 H       2.836247    -1.657459    -2.758159 H          1 UNL1 0.000
    43 H       2.115808     2.563083    -3.261819 H          1 UNL1 0.000
    44 H       0.824939     2.588345    -1.168860 H          1 UNL1 0.000
    45 H       4.277821     1.057993    -4.295773 H          1 UNL1 0.000
    46 H       2.784542     0.869186    -5.254203 H          1 UNL1 0.000
    47 H       3.680289    -0.556860    -4.714646 H          1 UNL1 0.000
@<TRIPOS>BOND
     1      1      2   2
     2      2      3   1
     3      3      4   2
     4      4      5   1
     5      5      6   2
     6      6      1   1
     7      4      7   1
     8      7      8   1
     9      8      9   2
    10      9     10   1
    11     10     11   2
    12     11     12   1
    13     12     13   2
    14     13      8   1
    15     14     15   2
    16     15     16   1
    17     16     17   2
    18     17     18   1
    19     18     19   2
    20     19     14   1
    21      7     14   1
    22      1     20   1
    23      2     21   1
    24      3     22   1
    25      5     23   1
    26      6     24   1
    27      9     25   1
    28     10     26   1
    29     11     27   1
    30     12     28   1
    31     13     29   1
    32     15     30   1
    33     16     31   1
    34     17     32   1
    35     19     33   1
    36     34     35   2
    37     35     36   1
    38     36     37   2
    39     37     38   1
    40     38     39   2
    41     39     34   1
    42     37     40   1
    43     35     41   1
    44     36     42   1
    45     38     43   1
    46     39     44   1
    47     40     45   1
    48     40     46   1
    49     40     47   1
    50     18     34   1
