# Produced with molli package
@<TRIPOS>MOLECULE
B_10_L
56 60 0 0 0
SMALL
USER_CHARGES

@<TRIPOS>ATOM
     1 C      -5.259505     4.265417     1.713475 C          1 UNL1 0.000
     2 C      -5.911752     3.123863     1.258312 C          1 UNL1 0.000
     3 C      -5.233347     1.896024     1.217831 C          1 UNL1 0.000
     4 C      -3.908760     1.771837     1.673986 C          1 UNL1 0.000
     5 C      -3.273776     2.954579     2.111376 C          1 UNL1 0.000
     6 C      -3.942680     4.182852     2.143277 C          1 UNL1 0.000
     7 N      -3.205391     0.505898     1.677847 N          1 UNL1 0.000
     8 C      -3.844982    -0.792682     1.750138 C          1 UNL1 0.000
     9 C      -5.067699    -1.001816     2.410381 C          1 UNL1 0.000
    10 C      -5.654006    -2.277466     2.484805 C          1 UNL1 0.000
    11 C      -5.009687    -3.379963     1.928539 C          1 UNL1 0.000
    12 C      -3.798643    -3.198452     1.271941 C          1 UNL1 0.000
    13 C      -3.221556    -1.927944     1.192365 C          1 UNL1 0.000
    14 O      -5.888307     5.471722     1.846535 O          1 UNL1 0.000
    15 C      -6.358072     5.976711     0.598930 C          1 UNL1 0.000
    16 O      -5.477554    -4.663695     1.941141 O          1 UNL1 0.000
    17 C      -6.266128    -5.013193     3.072535 C          1 UNL1 0.000
    18 C      -1.765706     0.525590     1.680779 C          1 UNL1 0.000
    19 C      -1.063740     0.381334     2.883617 C          1 UNL1 0.000
    20 C       0.322838     0.366999     2.866025 C          1 UNL1 0.000
    21 C       1.027737     0.454406     1.670115 C          1 UNL1 0.000
    22 C       0.345115     0.578106     0.451183 C          1 UNL1 0.000
    23 C      -1.056726     0.644291     0.472243 C          1 UNL1 0.000
    24 F       0.995508     0.253488     4.018783 F          1 UNL1 0.000
    25 H      -6.952612     3.166288     0.952665 H          1 UNL1 0.000
    26 H      -5.764818     1.036835     0.817706 H          1 UNL1 0.000
    27 H      -2.245546     2.941765     2.462286 H          1 UNL1 0.000
    28 H      -3.431731     5.069135     2.509160 H          1 UNL1 0.000
    29 H      -5.578203    -0.178584     2.903249 H          1 UNL1 0.000
    30 H      -6.615102    -2.377971     2.978777 H          1 UNL1 0.000
    31 H      -3.287881    -4.050416     0.830417 H          1 UNL1 0.000
    32 H      -2.270390    -1.846341     0.673891 H          1 UNL1 0.000
    33 H      -5.534599     6.079515    -0.116233 H          1 UNL1 0.000
    34 H      -6.774225     6.972697     0.780031 H          1 UNL1 0.000
    35 H      -7.155653     5.353887     0.182904 H          1 UNL1 0.000
    36 H      -6.318456    -6.105657     3.115184 H          1 UNL1 0.000
    37 H      -7.285715    -4.631135     2.966469 H          1 UNL1 0.000
    38 H      -5.810540    -4.666373     4.006649 H          1 UNL1 0.000
    39 H      -1.592650     0.289713     3.826639 H          1 UNL1 0.000
    40 H       2.113576     0.416343     1.696276 H          1 UNL1 0.000
    41 H      -1.612314     0.730654    -0.460212 H          1 UNL1 0.000
    42 C       1.082141     0.583610    -0.816406 C          1 UNL1 0.000
    43 C       1.163783     1.741480    -1.600524 C          1 UNL1 0.000
    44 C       1.882982     1.768716    -2.802812 C          1 UNL1 0.000
    45 C       2.518622     0.588567    -3.203830 C          1 UNL1 0.000
    46 C       2.452762    -0.589178    -2.463074 C          1 UNL1 0.000
    47 C       1.725985    -0.589702    -1.256874 C          1 UNL1 0.000
    48 N       3.289912     0.325260    -4.314605 N          1 UNL1 0.000
    49 C       3.705127    -0.981149    -4.301687 C          1 UNL1 0.000
    50 C       3.198404    -1.573355    -3.168783 C          1 UNL1 0.000
    51 H       0.668979     2.653210    -1.269150 H          1 UNL1 0.000
    52 H       1.944105     2.677059    -3.392505 H          1 UNL1 0.000
    53 H       1.664699    -1.503191    -0.670870 H          1 UNL1 0.000
    54 H       3.514653     1.001083    -5.029241 H          1 UNL1 0.000
    55 H       4.324145    -1.373927    -5.097629 H          1 UNL1 0.000
    56 H       3.349411    -2.603544    -2.872800 H          1 UNL1 0.000
@<TRIPOS>BOND
     1      1      2   2
     2      2      3   1
     3      3      4   2
     4      4      5   1
     5      5      6   2
     6      6      1   1
     7      4      7   1
     8      7      8   1
     9      8      9   2
    10      9     10   1
    11     10     11   2
    12     11     12   1
    13     12     13   2
    14     13      8   1
    15     14     15   1
    16      1     14   1
    17     16     17   1
    18     11     16   1
    19     18     19   2
    20     19     20   1
    21     20     21   2
    22     21     22   1
    23     22     23   2
    24     23     18   1
    25     20     24   1
    26      7     18   1
    27      2     25   1
    28      3     26   1
    29      5     27   1
    30      6     28   1
    31      9     29   1
    32     10     30   1
    33     12     31   1
    34     13     32   1
    35     15     33   1
    36     15     34   1
    37     15     35   1
    38     17     36   1
    39     17     37   1
    40     17     38   1
    41     19     39   1
    42     21     40   1
    43     23     41   1
    44     42     43   2
    45     43     44   1
    46     44     45   2
    47     45     46   1
    48     46     47   2
    49     47     42   1
    50     45     48   1
    51     48     49   1
    52     49     50   2
    53     50     46   1
    54     43     51   1
    55     44     52   1
    56     47     53   1
    57     48     54   1
    58     49     55   1
    59     50     56   1
    60     22     42   1
