# Produced with molli package
@<TRIPOS>MOLECULE
B_10_R
53 56 0 0 0
SMALL
USER_CHARGES

@<TRIPOS>ATOM
     1 C      -5.272233     4.234751     1.919376 C          1 UNL1 0.000
     2 C      -5.842715     3.112083     2.509787 C          1 UNL1 0.000
     3 C      -5.177062     1.879308     2.471060 C          1 UNL1 0.000
     4 C      -3.933932     1.739813     1.830353 C          1 UNL1 0.000
     5 C      -3.351366     2.912202     1.303246 C          1 UNL1 0.000
     6 C      -4.007089     4.147040     1.351859 C          1 UNL1 0.000
     7 N      -3.242326     0.470208     1.743701 N          1 UNL1 0.000
     8 C      -3.901551    -0.820088     1.701613 C          1 UNL1 0.000
     9 C      -5.222468    -0.979155     1.242023 C          1 UNL1 0.000
    10 C      -5.859149    -2.228345     1.259599 C          1 UNL1 0.000
    11 C      -5.169444    -3.347881     1.710211 C          1 UNL1 0.000
    12 C      -3.839644    -3.243938     2.089592 C          1 UNL1 0.000
    13 C      -3.218507    -1.992179     2.095026 C          1 UNL1 0.000
    14 O      -5.973073     5.406943     1.990108 O          1 UNL1 0.000
    15 C      -6.136759     6.016133     0.709106 C          1 UNL1 0.000
    16 O      -5.751074    -4.584044     1.734388 O          1 UNL1 0.000
    17 C      -6.673693    -4.679591     2.820667 C          1 UNL1 0.000
    18 C      -1.803714     0.497553     1.748935 C          1 UNL1 0.000
    19 C      -1.108862     0.663009     2.952844 C          1 UNL1 0.000
    20 C       0.278171     0.676836     2.943370 C          1 UNL1 0.000
    21 C       0.991659     0.559809     1.755020 C          1 UNL1 0.000
    22 C       0.315439     0.414094     0.535467 C          1 UNL1 0.000
    23 C      -1.087403     0.364444     0.546545 C          1 UNL1 0.000
    24 F       0.943684     0.806773     4.098392 F          1 UNL1 0.000
    25 H      -6.810771     3.191251     2.996951 H          1 UNL1 0.000
    26 H      -5.643397     1.033734     2.969002 H          1 UNL1 0.000
    27 H      -2.372154     2.885572     0.831774 H          1 UNL1 0.000
    28 H      -3.508280     5.025571     0.954763 H          1 UNL1 0.000
    29 H      -5.778366    -0.133759     0.845452 H          1 UNL1 0.000
    30 H      -6.883058    -2.319524     0.909385 H          1 UNL1 0.000
    31 H      -3.288971    -4.127542     2.398582 H          1 UNL1 0.000
    32 H      -2.186253    -1.953714     2.431137 H          1 UNL1 0.000
    33 H      -5.193133     6.421899     0.331022 H          1 UNL1 0.000
    34 H      -6.834330     6.851436     0.822280 H          1 UNL1 0.000
    35 H      -6.568765     5.310941    -0.010316 H          1 UNL1 0.000
    36 H      -6.830866    -5.741293     3.034213 H          1 UNL1 0.000
    37 H      -7.636088    -4.239851     2.540919 H          1 UNL1 0.000
    38 H      -6.290651    -4.208008     3.733972 H          1 UNL1 0.000
    39 H      -1.643632     0.765096     3.891679 H          1 UNL1 0.000
    40 H       2.076850     0.605008     1.787058 H          1 UNL1 0.000
    41 H      -1.636479     0.263052    -0.388294 H          1 UNL1 0.000
    42 C       1.057081     0.364350    -0.721603 C          1 UNL1 0.000
    43 N       1.281377     1.569499    -1.305995 N          1 UNL1 0.000
    44 C       1.991786     1.586586    -2.460440 C          1 UNL1 0.000
    45 C       2.482974     0.438800    -3.057206 C          1 UNL1 0.000
    46 C       2.243366    -0.798545    -2.457515 C          1 UNL1 0.000
    47 C       1.518474    -0.833529    -1.265587 C          1 UNL1 0.000
    48 N       3.239487     0.536146    -4.292291 N          1 UNL1 0.000
    49 O       3.308873    -0.473783    -5.002036 O          1 UNL1 0.000
    50 O       3.770422     1.626387    -4.554084 O          1 UNL1 0.000
    51 H       2.143188     2.576663    -2.884062 H          1 UNL1 0.000
    52 H       2.614554    -1.722610    -2.893625 H          1 UNL1 0.000
    53 H       1.322431    -1.779337    -0.768631 H          1 UNL1 0.000
@<TRIPOS>BOND
     1      1      2   2
     2      2      3   1
     3      3      4   2
     4      4      5   1
     5      5      6   2
     6      6      1   1
     7      4      7   1
     8      7      8   1
     9      8      9   2
    10      9     10   1
    11     10     11   2
    12     11     12   1
    13     12     13   2
    14     13      8   1
    15     14     15   1
    16      1     14   1
    17     16     17   1
    18     11     16   1
    19     18     19   2
    20     19     20   1
    21     20     21   2
    22     21     22   1
    23     22     23   2
    24     23     18   1
    25     20     24   1
    26      7     18   1
    27      2     25   1
    28      3     26   1
    29      5     27   1
    30      6     28   1
    31      9     29   1
    32     10     30   1
    33     12     31   1
    34     13     32   1
    35     15     33   1
    36     15     34   1
    37     15     35   1
    38     17     36   1
    39     17     37   1
    40     17     38   1
    41     19     39   1
    42     21     40   1
    43     23     41   1
    44     42     43   2
    45     43     44   1
    46     44     45   2
    47     45     46   1
    48     46     47   2
    49     47     42   1
    50     48     49   2
    51     48     50   1
    52     45     48   1
    53     44     51   1
    54     46     52   1
    55     47     53   1
    56     22     42   1
