# Produced with molli package
@<TRIPOS>MOLECULE
B_10_O
51 54 0 0 0
SMALL
USER_CHARGES

@<TRIPOS>ATOM
     1 C      -5.407637     4.160624     1.960478 C          1 UNL1 0.000
     2 C      -5.897452     3.011606     2.574656 C          1 UNL1 0.000
     3 C      -5.180654     1.811108     2.500170 C          1 UNL1 0.000
     4 C      -3.956675     1.737032     1.813917 C          1 UNL1 0.000
     5 C      -3.459188     2.927124     1.245839 C          1 UNL1 0.000
     6 C      -4.173543     4.127972     1.320053 C          1 UNL1 0.000
     7 N      -3.205469     0.505942     1.722748 N          1 UNL1 0.000
     8 C      -3.821927    -0.800160     1.656844 C          1 UNL1 0.000
     9 C      -5.089993    -0.994583     1.076964 C          1 UNL1 0.000
    10 C      -5.687100    -2.260580     1.040603 C          1 UNL1 0.000
    11 C      -5.017869    -3.352793     1.579702 C          1 UNL1 0.000
    12 C      -3.741444    -3.206907     2.107281 C          1 UNL1 0.000
    13 C      -3.153321    -1.940050     2.150248 C          1 UNL1 0.000
    14 O      -6.156738     5.297764     2.088689 O          1 UNL1 0.000
    15 C      -6.362991     5.968944     0.846773 C          1 UNL1 0.000
    16 O      -5.585937    -4.594934     1.525423 O          1 UNL1 0.000
    17 C      -6.310479    -4.851744     2.729429 C          1 UNL1 0.000
    18 C      -1.770809     0.590565     1.732222 C          1 UNL1 0.000
    19 C      -1.090418     0.890397     2.918965 C          1 UNL1 0.000
    20 C       0.294569     0.969312     2.910463 C          1 UNL1 0.000
    21 C       1.020728     0.786446     1.739301 C          1 UNL1 0.000
    22 C       0.358696     0.507027     0.534796 C          1 UNL1 0.000
    23 C      -1.040527     0.391300     0.548668 C          1 UNL1 0.000
    24 F       0.945463     1.231907     4.052599 F          1 UNL1 0.000
    25 H      -6.842033     3.046470     3.110497 H          1 UNL1 0.000
    26 H      -5.583349     0.938340     3.007371 H          1 UNL1 0.000
    27 H      -2.505150     2.935542     0.723624 H          1 UNL1 0.000
    28 H      -3.738176     5.024242     0.889918 H          1 UNL1 0.000
    29 H      -5.623645    -0.162025     0.625298 H          1 UNL1 0.000
    30 H      -6.665458    -2.389077     0.587220 H          1 UNL1 0.000
    31 H      -3.204602    -4.069965     2.489395 H          1 UNL1 0.000
    32 H      -2.164573    -1.856788     2.593213 H          1 UNL1 0.000
    33 H      -5.444387     6.440317     0.484230 H          1 UNL1 0.000
    34 H      -7.096912     6.762947     1.015121 H          1 UNL1 0.000
    35 H      -6.771994     5.286342     0.093259 H          1 UNL1 0.000
    36 H      -6.588732    -5.909926     2.734373 H          1 UNL1 0.000
    37 H      -7.229172    -4.256256     2.757805 H          1 UNL1 0.000
    38 H      -5.705431    -4.659489     3.623176 H          1 UNL1 0.000
    39 H      -1.634286     1.048693     3.844251 H          1 UNL1 0.000
    40 H       2.102087     0.887649     1.766252 H          1 UNL1 0.000
    41 H      -1.575109     0.188604    -0.378544 H          1 UNL1 0.000
    42 C       1.105640     0.391409    -0.714842 C          1 UNL1 0.000
    43 N       1.213977     1.538695    -1.428748 N          1 UNL1 0.000
    44 C       1.911235     1.486319    -2.583668 C          1 UNL1 0.000
    45 C       2.510735     0.336974    -3.069582 C          1 UNL1 0.000
    46 C       2.386969    -0.831706    -2.327135 C          1 UNL1 0.000
    47 C       1.674909    -0.808641    -1.130720 C          1 UNL1 0.000
    48 H       1.978569     2.425574    -3.125359 H          1 UNL1 0.000
    49 H       3.060457     0.353097    -4.003716 H          1 UNL1 0.000
    50 H       2.842504    -1.754007    -2.676324 H          1 UNL1 0.000
    51 H       1.567785    -1.709830    -0.535986 H          1 UNL1 0.000
@<TRIPOS>BOND
     1      1      2   2
     2      2      3   1
     3      3      4   2
     4      4      5   1
     5      5      6   2
     6      6      1   1
     7      4      7   1
     8      7      8   1
     9      8      9   2
    10      9     10   1
    11     10     11   2
    12     11     12   1
    13     12     13   2
    14     13      8   1
    15     14     15   1
    16      1     14   1
    17     16     17   1
    18     11     16   1
    19     18     19   2
    20     19     20   1
    21     20     21   2
    22     21     22   1
    23     22     23   2
    24     23     18   1
    25     20     24   1
    26      7     18   1
    27      2     25   1
    28      3     26   1
    29      5     27   1
    30      6     28   1
    31      9     29   1
    32     10     30   1
    33     12     31   1
    34     13     32   1
    35     15     33   1
    36     15     34   1
    37     15     35   1
    38     17     36   1
    39     17     37   1
    40     17     38   1
    41     19     39   1
    42     21     40   1
    43     23     41   1
    44     42     43   2
    45     43     44   1
    46     44     45   2
    47     45     46   1
    48     46     47   2
    49     47     42   1
    50     44     48   1
    51     45     49   1
    52     46     50   1
    53     47     51   1
    54     22     42   1
