# Produced with molli package
@<TRIPOS>MOLECULE
B_10_T
55 58 0 0 0
SMALL
USER_CHARGES

@<TRIPOS>ATOM
     1 C      -5.389230     4.228091     2.101892 C          1 UNL1 0.000
     2 C      -5.856297     3.095994     2.761786 C          1 UNL1 0.000
     3 C      -5.165857     1.883999     2.649959 C          1 UNL1 0.000
     4 C      -3.992388     1.784130     1.882109 C          1 UNL1 0.000
     5 C      -3.512557     2.959078     1.270471 C          1 UNL1 0.000
     6 C      -4.201633     4.171392     1.379956 C          1 UNL1 0.000
     7 N      -3.273854     0.537490     1.750625 N          1 UNL1 0.000
     8 C      -3.930410    -0.749944     1.717041 C          1 UNL1 0.000
     9 C      -5.229524    -0.900909     1.193743 C          1 UNL1 0.000
    10 C      -5.877945    -2.141210     1.200042 C          1 UNL1 0.000
    11 C      -5.229633    -3.252224     1.725582 C          1 UNL1 0.000
    12 C      -3.924631    -3.152267     2.190528 C          1 UNL1 0.000
    13 C      -3.283401    -1.910100     2.189003 C          1 UNL1 0.000
    14 O      -6.100221     5.385554     2.260669 O          1 UNL1 0.000
    15 C      -6.495213     5.947485     1.009574 C          1 UNL1 0.000
    16 O      -5.848351    -4.471185     1.725442 O          1 UNL1 0.000
    17 C      -6.595043    -4.635848     2.932166 C          1 UNL1 0.000
    18 C      -1.838097     0.588807     1.742114 C          1 UNL1 0.000
    19 C      -1.135732     0.812210     2.933105 C          1 UNL1 0.000
    20 C       0.250096     0.862356     2.909780 C          1 UNL1 0.000
    21 C       0.956067     0.733049     1.719186 C          1 UNL1 0.000
    22 C       0.272202     0.539980     0.510234 C          1 UNL1 0.000
    23 C      -1.127937     0.441210     0.538184 C          1 UNL1 0.000
    24 F       0.921387     1.051478     4.054457 F          1 UNL1 0.000
    25 H      -6.760534     3.152777     3.361252 H          1 UNL1 0.000
    26 H      -5.546117     1.021247     3.190927 H          1 UNL1 0.000
    27 H      -2.596637     2.943586     0.685739 H          1 UNL1 0.000
    28 H      -3.789740     5.059852     0.911810 H          1 UNL1 0.000
    29 H      -5.749983    -0.051806     0.757547 H          1 UNL1 0.000
    30 H      -6.879827    -2.234747     0.791913 H          1 UNL1 0.000
    31 H      -3.407274    -4.032048     2.561458 H          1 UNL1 0.000
    32 H      -2.272248    -1.863589     2.583801 H          1 UNL1 0.000
    33 H      -5.640046     6.360358     0.465395 H          1 UNL1 0.000
    34 H      -7.185906     6.770478     1.216707 H          1 UNL1 0.000
    35 H      -7.023778     5.209930     0.394858 H          1 UNL1 0.000
    36 H      -6.936259    -5.674468     2.976755 H          1 UNL1 0.000
    37 H      -7.477027    -3.986445     2.932309 H          1 UNL1 0.000
    38 H      -5.981876    -4.444757     3.820662 H          1 UNL1 0.000
    39 H      -1.663783     0.930946     3.873462 H          1 UNL1 0.000
    40 H       2.040042     0.805726     1.737904 H          1 UNL1 0.000
    41 H      -1.679753     0.286202    -0.387962 H          1 UNL1 0.000
    42 C       1.006031     0.505560    -0.755756 C          1 UNL1 0.000
    43 C       1.124755     1.668249    -1.532265 C          1 UNL1 0.000
    44 C       1.855374     1.665112    -2.723065 C          1 UNL1 0.000
    45 C       2.481452     0.495766    -3.163867 C          1 UNL1 0.000
    46 C       2.357467    -0.670654    -2.399432 C          1 UNL1 0.000
    47 C       1.627749    -0.665376    -1.206286 C          1 UNL1 0.000
    48 C       3.282056     0.482059    -4.432158 C          1 UNL1 0.000
    49 H       0.655389     2.593194    -1.202880 H          1 UNL1 0.000
    50 H       1.935984     2.585337    -3.297146 H          1 UNL1 0.000
    51 H       2.834829    -1.591859    -2.726489 H          1 UNL1 0.000
    52 H       1.551105    -1.582641    -0.626398 H          1 UNL1 0.000
    53 H       2.853502    -0.232117    -5.142227 H          1 UNL1 0.000
    54 H       4.319084     0.202705    -4.219740 H          1 UNL1 0.000
    55 H       3.292792     1.466959    -4.910949 H          1 UNL1 0.000
@<TRIPOS>BOND
     1      1      2   2
     2      2      3   1
     3      3      4   2
     4      4      5   1
     5      5      6   2
     6      6      1   1
     7      4      7   1
     8      7      8   1
     9      8      9   2
    10      9     10   1
    11     10     11   2
    12     11     12   1
    13     12     13   2
    14     13      8   1
    15     14     15   1
    16      1     14   1
    17     16     17   1
    18     11     16   1
    19     18     19   2
    20     19     20   1
    21     20     21   2
    22     21     22   1
    23     22     23   2
    24     23     18   1
    25     20     24   1
    26      7     18   1
    27      2     25   1
    28      3     26   1
    29      5     27   1
    30      6     28   1
    31      9     29   1
    32     10     30   1
    33     12     31   1
    34     13     32   1
    35     15     33   1
    36     15     34   1
    37     15     35   1
    38     17     36   1
    39     17     37   1
    40     17     38   1
    41     19     39   1
    42     21     40   1
    43     23     41   1
    44     42     43   2
    45     43     44   1
    46     44     45   2
    47     45     46   1
    48     46     47   2
    49     47     42   1
    50     45     48   1
    51     43     49   1
    52     44     50   1
    53     46     51   1
    54     47     52   1
    55     48     53   1
    56     48     54   1
    57     48     55   1
    58     22     42   1
