# Produced with molli package
@<TRIPOS>MOLECULE
B_10_N
49 52 0 0 0
SMALL
USER_CHARGES

@<TRIPOS>ATOM
     1 C      -5.475241     4.240224     1.830883 C          1 UNL1 0.000
     2 C      -5.964560     3.120811     2.499371 C          1 UNL1 0.000
     3 C      -5.255015     1.914588     2.474638 C          1 UNL1 0.000
     4 C      -4.035819     1.804734     1.785707 C          1 UNL1 0.000
     5 C      -3.532830     2.965914     1.167441 C          1 UNL1 0.000
     6 C      -4.242972     4.171709     1.188464 C          1 UNL1 0.000
     7 N      -3.302950     0.561134     1.733632 N          1 UNL1 0.000
     8 C      -3.948366    -0.729965     1.679155 C          1 UNL1 0.000
     9 C      -5.204279    -0.902051     1.065578 C          1 UNL1 0.000
    10 C      -5.837667    -2.149590     1.042978 C          1 UNL1 0.000
    11 C      -5.219814    -3.244662     1.634317 C          1 UNL1 0.000
    12 C      -3.955094    -3.121819     2.197066 C          1 UNL1 0.000
    13 C      -3.327751    -1.872955     2.222130 C          1 UNL1 0.000
    14 O      -6.243036     5.369728     1.901160 O          1 UNL1 0.000
    15 C      -6.287751     6.115745     0.686922 C          1 UNL1 0.000
    16 O      -5.832115    -4.466254     1.594224 O          1 UNL1 0.000
    17 C      -6.530235    -4.702625     2.817952 C          1 UNL1 0.000
    18 C      -1.867607     0.622073     1.742138 C          1 UNL1 0.000
    19 C      -1.183383     0.943738     2.919891 C          1 UNL1 0.000
    20 C       0.202380     1.037815     2.904987 C          1 UNL1 0.000
    21 C       0.923521     0.855197     1.729464 C          1 UNL1 0.000
    22 C       0.251028     0.549283     0.543442 C          1 UNL1 0.000
    23 C      -1.143238     0.405971     0.557231 C          1 UNL1 0.000
    24 F       0.854827     1.324515     4.037979 F          1 UNL1 0.000
    25 H      -6.908806     3.181575     3.034029 H          1 UNL1 0.000
    26 H      -5.661699     1.064220     3.015933 H          1 UNL1 0.000
    27 H      -2.582676     2.945347     0.639887 H          1 UNL1 0.000
    28 H      -3.805397     5.041298     0.709297 H          1 UNL1 0.000
    29 H      -5.699605    -0.065543     0.578626 H          1 UNL1 0.000
    30 H      -6.805524    -2.261570     0.563311 H          1 UNL1 0.000
    31 H      -3.457074    -3.989522     2.619375 H          1 UNL1 0.000
    32 H      -2.350539    -1.804501     2.692481 H          1 UNL1 0.000
    33 H      -5.357052     6.668457     0.526288 H          1 UNL1 0.000
    34 H      -7.096877     6.847130     0.774489 H          1 UNL1 0.000
    35 H      -6.511308     5.469997    -0.170068 H          1 UNL1 0.000
    36 H      -6.893244    -5.734678     2.803295 H          1 UNL1 0.000
    37 H      -7.396316    -4.037181     2.901847 H          1 UNL1 0.000
    38 H      -5.877443    -4.588436     3.690940 H          1 UNL1 0.000
    39 H      -1.723595     1.112806     3.846204 H          1 UNL1 0.000
    40 H       2.004565     0.958893     1.754224 H          1 UNL1 0.000
    41 H      -1.684475     0.186197    -0.360564 H          1 UNL1 0.000
    42 C       0.990353     0.456359    -0.706258 C          1 UNL1 0.000
    43 C       0.925170    -0.658139    -1.517863 C          1 UNL1 0.000
    44 S       1.877916    -0.491444    -2.931855 S          1 UNL1 0.000
    45 C       2.383364     1.076499    -2.474605 C          1 UNL1 0.000
    46 C       1.844628     1.459946    -1.266222 C          1 UNL1 0.000
    47 H       0.369376    -1.572387    -1.356158 H          1 UNL1 0.000
    48 H       3.048315     1.642940    -3.112199 H          1 UNL1 0.000
    49 H       2.040656     2.424195    -0.812585 H          1 UNL1 0.000
@<TRIPOS>BOND
     1      1      2   2
     2      2      3   1
     3      3      4   2
     4      4      5   1
     5      5      6   2
     6      6      1   1
     7      4      7   1
     8      7      8   1
     9      8      9   2
    10      9     10   1
    11     10     11   2
    12     11     12   1
    13     12     13   2
    14     13      8   1
    15     14     15   1
    16      1     14   1
    17     16     17   1
    18     11     16   1
    19     18     19   2
    20     19     20   1
    21     20     21   2
    22     21     22   1
    23     22     23   2
    24     23     18   1
    25     20     24   1
    26      7     18   1
    27      2     25   1
    28      3     26   1
    29      5     27   1
    30      6     28   1
    31      9     29   1
    32     10     30   1
    33     12     31   1
    34     13     32   1
    35     15     33   1
    36     15     34   1
    37     15     35   1
    38     17     36   1
    39     17     37   1
    40     17     38   1
    41     19     39   1
    42     21     40   1
    43     23     41   1
    44     42     43   2
    45     43     44   1
    46     44     45   1
    47     45     46   2
    48     46     42   1
    49     43     47   1
    50     45     48   1
    51     46     49   1
    52     22     42   1
