# Produced with molli package
@<TRIPOS>MOLECULE
B_10_K
54 57 0 0 0
SMALL
USER_CHARGES

@<TRIPOS>ATOM
     1 C      -5.312894     4.199981     1.905995 C          1 UNL1 0.000
     2 C      -5.875046     3.055900     2.461667 C          1 UNL1 0.000
     3 C      -5.181344     1.840236     2.421510 C          1 UNL1 0.000
     4 C      -3.913013     1.741828     1.822299 C          1 UNL1 0.000
     5 C      -3.342558     2.932152     1.326547 C          1 UNL1 0.000
     6 C      -4.030975     4.149710     1.370396 C          1 UNL1 0.000
     7 N      -3.197578     0.486542     1.744023 N          1 UNL1 0.000
     8 C      -3.852287    -0.802001     1.694242 C          1 UNL1 0.000
     9 C      -5.102347    -0.976300     1.070811 C          1 UNL1 0.000
    10 C      -5.745063    -2.220271     1.064161 C          1 UNL1 0.000
    11 C      -5.140980    -3.311784     1.676098 C          1 UNL1 0.000
    12 C      -3.875797    -3.189983     2.237582 C          1 UNL1 0.000
    13 C      -3.241380    -1.944826     2.249906 C          1 UNL1 0.000
    14 O      -6.044353     5.353118     1.977378 O          1 UNL1 0.000
    15 C      -6.178555     5.989848     0.706938 C          1 UNL1 0.000
    16 O      -5.773289    -4.523384     1.646710 O          1 UNL1 0.000
    17 C      -6.320377    -4.831627     2.930127 C          1 UNL1 0.000
    18 C      -1.760622     0.520250     1.748797 C          1 UNL1 0.000
    19 C      -1.064533     0.726219     2.945424 C          1 UNL1 0.000
    20 C       0.322480     0.752308     2.932302 C          1 UNL1 0.000
    21 C       1.034639     0.616057     1.744934 C          1 UNL1 0.000
    22 C       0.356925     0.439724     0.530868 C          1 UNL1 0.000
    23 C      -1.044678     0.366510     0.548002 C          1 UNL1 0.000
    24 F       0.989149     0.921303     4.081594 F          1 UNL1 0.000
    25 H      -6.858771     3.104370     2.920624 H          1 UNL1 0.000
    26 H      -5.645642     0.972912     2.883412 H          1 UNL1 0.000
    27 H      -2.350546     2.931221     0.883315 H          1 UNL1 0.000
    28 H      -3.545777     5.045495     0.995939 H          1 UNL1 0.000
    29 H      -5.588265    -0.144739     0.566457 H          1 UNL1 0.000
    30 H      -6.712433    -2.331999     0.583134 H          1 UNL1 0.000
    31 H      -3.379564    -4.054988     2.667427 H          1 UNL1 0.000
    32 H      -2.264673    -1.881498     2.721351 H          1 UNL1 0.000
    33 H      -5.242794     6.465866     0.397756 H          1 UNL1 0.000
    34 H      -6.934526     6.774787     0.804622 H          1 UNL1 0.000
    35 H      -6.523426     5.283516    -0.057149 H          1 UNL1 0.000
    36 H      -6.674886    -5.866393     2.904168 H          1 UNL1 0.000
    37 H      -7.175839    -4.182060     3.144685 H          1 UNL1 0.000
    38 H      -5.576368    -4.753668     3.730928 H          1 UNL1 0.000
    39 H      -1.597642     0.847751     3.882891 H          1 UNL1 0.000
    40 H       2.119795     0.666201     1.775330 H          1 UNL1 0.000
    41 H      -1.594994     0.225072    -0.380951 H          1 UNL1 0.000
    42 C       1.098865     0.387884    -0.730187 C          1 UNL1 0.000
    43 C       1.309451     1.565404    -1.470210 C          1 UNL1 0.000
    44 C       2.047233     1.545511    -2.655951 C          1 UNL1 0.000
    45 C       2.572863     0.332596    -3.110479 C          1 UNL1 0.000
    46 C       2.365673    -0.854432    -2.398458 C          1 UNL1 0.000
    47 C       1.631412    -0.819722    -1.208744 C          1 UNL1 0.000
    48 N       3.357545     0.305973    -4.343776 N          1 UNL1 0.000
    49 O       3.960201     1.343319    -4.659510 O          1 UNL1 0.000
    50 O       3.371294    -0.748218    -4.991685 O          1 UNL1 0.000
    51 H       0.903433     2.511468    -1.114218 H          1 UNL1 0.000
    52 H       2.203069     2.470973    -3.206513 H          1 UNL1 0.000
    53 H       2.774145    -1.799962    -2.748721 H          1 UNL1 0.000
    54 H       1.479022    -1.742031    -0.650039 H          1 UNL1 0.000
@<TRIPOS>BOND
     1      1      2   2
     2      2      3   1
     3      3      4   2
     4      4      5   1
     5      5      6   2
     6      6      1   1
     7      4      7   1
     8      7      8   1
     9      8      9   2
    10      9     10   1
    11     10     11   2
    12     11     12   1
    13     12     13   2
    14     13      8   1
    15     14     15   1
    16      1     14   1
    17     16     17   1
    18     11     16   1
    19     18     19   2
    20     19     20   1
    21     20     21   2
    22     21     22   1
    23     22     23   2
    24     23     18   1
    25     20     24   1
    26      7     18   1
    27      2     25   1
    28      3     26   1
    29      5     27   1
    30      6     28   1
    31      9     29   1
    32     10     30   1
    33     12     31   1
    34     13     32   1
    35     15     33   1
    36     15     34   1
    37     15     35   1
    38     17     36   1
    39     17     37   1
    40     17     38   1
    41     19     39   1
    42     21     40   1
    43     23     41   1
    44     42     43   2
    45     43     44   1
    46     44     45   2
    47     45     46   1
    48     46     47   2
    49     47     42   1
    50     48     49   2
    51     48     50   1
    52     45     48   1
    53     43     51   1
    54     44     52   1
    55     46     53   1
    56     47     54   1
    57     22     42   1
