# Produced with molli package
@<TRIPOS>MOLECULE
B_10_Q
50 53 0 0 0
SMALL
USER_CHARGES

@<TRIPOS>ATOM
     1 C      -5.225564     4.323472     1.484326 C          1 UNL1 0.000
     2 C      -5.861356     3.182625     1.003016 C          1 UNL1 0.000
     3 C      -5.204079     1.942647     1.041085 C          1 UNL1 0.000
     4 C      -3.918435     1.810275     1.595098 C          1 UNL1 0.000
     5 C      -3.299100     2.990656     2.059202 C          1 UNL1 0.000
     6 C      -3.947970     4.228462     2.017778 C          1 UNL1 0.000
     7 N      -3.233168     0.537796     1.670124 N          1 UNL1 0.000
     8 C      -3.889724    -0.749745     1.778045 C          1 UNL1 0.000
     9 C      -5.151941    -0.913479     2.371559 C          1 UNL1 0.000
    10 C      -5.745467    -2.182405     2.500410 C          1 UNL1 0.000
    11 C      -5.074385    -3.322612     2.064440 C          1 UNL1 0.000
    12 C      -3.824676    -3.183760     1.471513 C          1 UNL1 0.000
    13 C      -3.241365    -1.920901     1.334125 C          1 UNL1 0.000
    14 O      -5.829964     5.548391     1.536612 O          1 UNL1 0.000
    15 C      -6.242854     6.006811     0.251717 C          1 UNL1 0.000
    16 O      -5.527274    -4.608789     2.148083 O          1 UNL1 0.000
    17 C      -6.576750    -4.850332     3.076061 C          1 UNL1 0.000
    18 C      -1.794256     0.544633     1.720392 C          1 UNL1 0.000
    19 C      -1.131879     0.383862     2.942347 C          1 UNL1 0.000
    20 C       0.254648     0.345233     2.967278 C          1 UNL1 0.000
    21 C       0.997114     0.417377     1.791902 C          1 UNL1 0.000
    22 C       0.353476     0.554354     0.553833 C          1 UNL1 0.000
    23 C      -1.047371     0.656315     0.534786 C          1 UNL1 0.000
    24 F       0.889759     0.216950     4.138171 F          1 UNL1 0.000
    25 H      -6.873564     3.235435     0.614299 H          1 UNL1 0.000
    26 H      -5.716693     1.081378     0.621043 H          1 UNL1 0.000
    27 H      -2.300023     2.968368     2.485898 H          1 UNL1 0.000
    28 H      -3.450292     5.114312     2.402634 H          1 UNL1 0.000
    29 H      -5.688897    -0.059472     2.775761 H          1 UNL1 0.000
    30 H      -6.731317    -2.243536     2.949753 H          1 UNL1 0.000
    31 H      -3.288848    -4.064055     1.124952 H          1 UNL1 0.000
    32 H      -2.261711    -1.875309     0.867162 H          1 UNL1 0.000
    33 H      -5.418418     5.964899    -0.468814 H          1 UNL1 0.000
    34 H      -6.546151     7.053437     0.354966 H          1 UNL1 0.000
    35 H      -7.106586     5.443535    -0.113739 H          1 UNL1 0.000
    36 H      -6.688228    -5.934534     3.176631 H          1 UNL1 0.000
    37 H      -7.524071    -4.448468     2.704265 H          1 UNL1 0.000
    38 H      -6.337342    -4.448586     4.066528 H          1 UNL1 0.000
    39 H      -1.690882     0.299599     3.869054 H          1 UNL1 0.000
    40 H       2.081089     0.366008     1.856230 H          1 UNL1 0.000
    41 H      -1.570297     0.771122    -0.413495 H          1 UNL1 0.000
    42 C       1.112722     0.539127    -0.694653 C          1 UNL1 0.000
    43 N       1.138140     1.691689    -1.407410 N          1 UNL1 0.000
    44 C       1.845053     1.652002    -2.561846 C          1 UNL1 0.000
    45 C       2.492853     0.509727    -3.002530 C          1 UNL1 0.000
    46 N       2.467813    -0.648769    -2.309080 N          1 UNL1 0.000
    47 C       1.765931    -0.606278    -1.149950 C          1 UNL1 0.000
    48 H       1.878235     2.574819    -3.129309 H          1 UNL1 0.000
    49 H       3.052116     0.496395    -3.931148 H          1 UNL1 0.000
    50 H       1.731596    -1.537445    -0.593778 H          1 UNL1 0.000
@<TRIPOS>BOND
     1      1      2   2
     2      2      3   1
     3      3      4   2
     4      4      5   1
     5      5      6   2
     6      6      1   1
     7      4      7   1
     8      7      8   1
     9      8      9   2
    10      9     10   1
    11     10     11   2
    12     11     12   1
    13     12     13   2
    14     13      8   1
    15     14     15   1
    16      1     14   1
    17     16     17   1
    18     11     16   1
    19     18     19   2
    20     19     20   1
    21     20     21   2
    22     21     22   1
    23     22     23   2
    24     23     18   1
    25     20     24   1
    26      7     18   1
    27      2     25   1
    28      3     26   1
    29      5     27   1
    30      6     28   1
    31      9     29   1
    32     10     30   1
    33     12     31   1
    34     13     32   1
    35     15     33   1
    36     15     34   1
    37     15     35   1
    38     17     36   1
    39     17     37   1
    40     17     38   1
    41     19     39   1
    42     21     40   1
    43     23     41   1
    44     42     43   2
    45     43     44   1
    46     44     45   2
    47     45     46   1
    48     46     47   2
    49     47     42   1
    50     44     48   1
    51     45     49   1
    52     47     50   1
    53     22     42   1
