# Produced with molli package
@<TRIPOS>MOLECULE
B_10_M
53 56 0 0 0
SMALL
USER_CHARGES

@<TRIPOS>ATOM
     1 C      -5.187782     4.311688     1.925033 C          1 UNL1 0.000
     2 C      -5.820764     3.186013     2.435365 C          1 UNL1 0.000
     3 C      -5.169115     1.946098     2.405829 C          1 UNL1 0.000
     4 C      -3.889133     1.800724     1.839426 C          1 UNL1 0.000
     5 C      -3.245779     2.983557     1.412427 C          1 UNL1 0.000
     6 C      -3.882666     4.227654     1.460243 C          1 UNL1 0.000
     7 N      -3.230489     0.512740     1.719563 N          1 UNL1 0.000
     8 C      -3.926634    -0.757431     1.632534 C          1 UNL1 0.000
     9 C      -5.242794    -0.863038     1.147070 C          1 UNL1 0.000
    10 C      -5.927232    -2.084910     1.143082 C          1 UNL1 0.000
    11 C      -5.297434    -3.235327     1.598700 C          1 UNL1 0.000
    12 C      -3.964837    -3.189985     1.986979 C          1 UNL1 0.000
    13 C      -3.291884    -1.962170     2.008696 C          1 UNL1 0.000
    14 O      -5.850974     5.506840     1.947934 O          1 UNL1 0.000
    15 C      -6.242699     5.876779     0.623814 C          1 UNL1 0.000
    16 O      -6.010489    -4.399291     1.585350 O          1 UNL1 0.000
    17 C      -6.153915    -4.958894     2.892051 C          1 UNL1 0.000
    18 C      -1.791329     0.497970     1.703247 C          1 UNL1 0.000
    19 C      -1.075384     0.550046     2.904956 C          1 UNL1 0.000
    20 C       0.311223     0.534688     2.873325 C          1 UNL1 0.000
    21 C       1.004160     0.501691     1.667305 C          1 UNL1 0.000
    22 C       0.308116     0.475460     0.450568 C          1 UNL1 0.000
    23 C      -1.095042     0.451527     0.481093 C          1 UNL1 0.000
    24 F       0.996934     0.557717     4.023599 F          1 UNL1 0.000
    25 H      -6.822078     3.266492     2.848699 H          1 UNL1 0.000
    26 H      -5.684244     1.096113     2.844686 H          1 UNL1 0.000
    27 H      -2.234850     2.959678     1.016158 H          1 UNL1 0.000
    28 H      -3.357045     5.118256     1.129123 H          1 UNL1 0.000
    29 H      -5.763999     0.004635     0.752881 H          1 UNL1 0.000
    30 H      -6.954775    -2.132587     0.793576 H          1 UNL1 0.000
    31 H      -3.442351    -4.096750     2.276892 H          1 UNL1 0.000
    32 H      -2.258453    -1.969270     2.343846 H          1 UNL1 0.000
    33 H      -5.373044     6.082218    -0.009946 H          1 UNL1 0.000
    34 H      -6.833658     6.794935     0.691252 H          1 UNL1 0.000
    35 H      -6.870589     5.102157     0.168333 H          1 UNL1 0.000
    36 H      -5.646457    -5.927524     2.921540 H          1 UNL1 0.000
    37 H      -7.220993    -5.122139     3.072676 H          1 UNL1 0.000
    38 H      -5.769474    -4.322619     3.698599 H          1 UNL1 0.000
    39 H      -1.593666     0.586306     3.857737 H          1 UNL1 0.000
    40 H       2.090750     0.511773     1.686592 H          1 UNL1 0.000
    41 H      -1.661056     0.425103    -0.448811 H          1 UNL1 0.000
    42 C       1.038706     0.506121    -0.818372 C          1 UNL1 0.000
    43 C       1.190234     1.710433    -1.524176 C          1 UNL1 0.000
    44 C       1.928570     1.757195    -2.711047 C          1 UNL1 0.000
    45 C       2.523172     0.595792    -3.211665 C          1 UNL1 0.000
    46 C       2.368444    -0.611572    -2.524063 C          1 UNL1 0.000
    47 C       1.631930    -0.654304    -1.335566 C          1 UNL1 0.000
    48 C       3.295420     0.644461    -4.418329 C          1 UNL1 0.000
    49 N       3.924817     0.685692    -5.393093 N          1 UNL1 0.000
    50 H       0.744403     2.627208    -1.141259 H          1 UNL1 0.000
    51 H       2.041531     2.705816    -3.233025 H          1 UNL1 0.000
    52 H       2.823931    -1.525064    -2.902094 H          1 UNL1 0.000
    53 H       1.526809    -1.601389    -0.808955 H          1 UNL1 0.000
@<TRIPOS>BOND
     1      1      2   2
     2      2      3   1
     3      3      4   2
     4      4      5   1
     5      5      6   2
     6      6      1   1
     7      4      7   1
     8      7      8   1
     9      8      9   2
    10      9     10   1
    11     10     11   2
    12     11     12   1
    13     12     13   2
    14     13      8   1
    15     14     15   1
    16      1     14   1
    17     16     17   1
    18     11     16   1
    19     18     19   2
    20     19     20   1
    21     20     21   2
    22     21     22   1
    23     22     23   2
    24     23     18   1
    25     20     24   1
    26      7     18   1
    27      2     25   1
    28      3     26   1
    29      5     27   1
    30      6     28   1
    31      9     29   1
    32     10     30   1
    33     12     31   1
    34     13     32   1
    35     15     33   1
    36     15     34   1
    37     15     35   1
    38     17     36   1
    39     17     37   1
    40     17     38   1
    41     19     39   1
    42     21     40   1
    43     23     41   1
    44     42     43   2
    45     43     44   1
    46     44     45   2
    47     45     46   1
    48     46     47   2
    49     47     42   1
    50     48     49   3
    51     45     48   1
    52     43     50   1
    53     44     51   1
    54     46     52   1
    55     47     53   1
    56     22     42   1
