# Produced with molli package
@<TRIPOS>MOLECULE
B_10_S
57 60 0 0 0
SMALL
USER_CHARGES

@<TRIPOS>ATOM
     1 C      -5.198927     4.366401     1.638464 C          1 UNL1 0.000
     2 C      -5.852676     3.239385     1.150561 C          1 UNL1 0.000
     3 C      -5.196386     1.998661     1.130749 C          1 UNL1 0.000
     4 C      -3.895967     1.845903     1.643136 C          1 UNL1 0.000
     5 C      -3.256967     3.015812     2.110184 C          1 UNL1 0.000
     6 C      -3.902068     4.257255     2.119147 C          1 UNL1 0.000
     7 N      -3.214968     0.567442     1.674203 N          1 UNL1 0.000
     8 C      -3.873195    -0.725313     1.701301 C          1 UNL1 0.000
     9 C      -5.146287    -0.923474     2.263923 C          1 UNL1 0.000
    10 C      -5.752707    -2.192197     2.282325 C          1 UNL1 0.000
    11 C      -5.076563    -3.298129     1.773590 C          1 UNL1 0.000
    12 C      -3.815525    -3.132601     1.218505 C          1 UNL1 0.000
    13 C      -3.220199    -1.869075     1.193066 C          1 UNL1 0.000
    14 O      -5.813938     5.580920     1.759323 O          1 UNL1 0.000
    15 C      -6.214225     6.113194     0.498946 C          1 UNL1 0.000
    16 O      -5.576171    -4.568894     1.737060 O          1 UNL1 0.000
    17 C      -6.257347    -4.964142     2.923180 C          1 UNL1 0.000
    18 C      -1.775202     0.569273     1.712000 C          1 UNL1 0.000
    19 C      -1.102515     0.411769     2.929350 C          1 UNL1 0.000
    20 C       0.283667     0.370111     2.940196 C          1 UNL1 0.000
    21 C       1.015743     0.441679     1.758865 C          1 UNL1 0.000
    22 C       0.361864     0.577877     0.525716 C          1 UNL1 0.000
    23 C      -1.038269     0.674577     0.518741 C          1 UNL1 0.000
    24 F       0.930053     0.240899     4.106222 F          1 UNL1 0.000
    25 H      -6.879405     3.303475     0.803425 H          1 UNL1 0.000
    26 H      -5.727180     1.153788     0.700904 H          1 UNL1 0.000
    27 H      -2.244530     2.982810     2.503175 H          1 UNL1 0.000
    28 H      -3.389265     5.132256     2.508940 H          1 UNL1 0.000
    29 H      -5.685643    -0.097763     2.720316 H          1 UNL1 0.000
    30 H      -6.753500    -2.291246     2.691482 H          1 UNL1 0.000
    31 H      -3.282742    -3.989863     0.815780 H          1 UNL1 0.000
    32 H      -2.228975    -1.801255     0.754627 H          1 UNL1 0.000
    33 H      -5.349247     6.245309    -0.160024 H          1 UNL1 0.000
    34 H      -6.654508     7.098732     0.680395 H          1 UNL1 0.000
    35 H      -6.975757     5.493051     0.016652 H          1 UNL1 0.000
    36 H      -6.198874    -6.055254     2.988927 H          1 UNL1 0.000
    37 H      -7.312516    -4.682070     2.865607 H          1 UNL1 0.000
    38 H      -5.792813    -4.553416     3.826802 H          1 UNL1 0.000
    39 H      -1.653295     0.329091     3.860693 H          1 UNL1 0.000
    40 H       2.099597     0.381787     1.810430 H          1 UNL1 0.000
    41 H      -1.574465     0.771377    -0.424186 H          1 UNL1 0.000
    42 C       1.119075     0.559753    -0.728813 C          1 UNL1 0.000
    43 C       1.220374     1.698116    -1.535506 C          1 UNL1 0.000
    44 C       1.956411     1.664183    -2.725451 C          1 UNL1 0.000
    45 C       2.598510     0.488437    -3.143203 C          1 UNL1 0.000
    46 C       2.484028    -0.657033    -2.351119 C          1 UNL1 0.000
    47 C       1.756626    -0.616192    -1.154589 C          1 UNL1 0.000
    48 C       3.377226     0.532715    -4.420143 C          1 UNL1 0.000
    49 C       4.014389    -0.712381    -4.983193 C          1 UNL1 0.000
    50 O       3.469387     1.598801    -5.030990 O          1 UNL1 0.000
    51 H       0.735557     2.626528    -1.239254 H          1 UNL1 0.000
    52 H       2.025530     2.569505    -3.327175 H          1 UNL1 0.000
    53 H       2.945316    -1.599940    -2.622510 H          1 UNL1 0.000
    54 H       1.682350    -1.521452    -0.552955 H          1 UNL1 0.000
    55 H       3.384419    -1.104333    -5.786019 H          1 UNL1 0.000
    56 H       4.186196    -1.491440    -4.242470 H          1 UNL1 0.000
    57 H       4.995825    -0.446554    -5.388977 H          1 UNL1 0.000
@<TRIPOS>BOND
     1      1      2   2
     2      2      3   1
     3      3      4   2
     4      4      5   1
     5      5      6   2
     6      6      1   1
     7      4      7   1
     8      7      8   1
     9      8      9   2
    10      9     10   1
    11     10     11   2
    12     11     12   1
    13     12     13   2
    14     13      8   1
    15     14     15   1
    16      1     14   1
    17     16     17   1
    18     11     16   1
    19     18     19   2
    20     19     20   1
    21     20     21   2
    22     21     22   1
    23     22     23   2
    24     23     18   1
    25     20     24   1
    26      7     18   1
    27      2     25   1
    28      3     26   1
    29      5     27   1
    30      6     28   1
    31      9     29   1
    32     10     30   1
    33     12     31   1
    34     13     32   1
    35     15     33   1
    36     15     34   1
    37     15     35   1
    38     17     36   1
    39     17     37   1
    40     17     38   1
    41     19     39   1
    42     21     40   1
    43     23     41   1
    44     42     43   2
    45     43     44   1
    46     44     45   2
    47     45     46   1
    48     46     47   2
    49     47     42   1
    50     45     48   1
    51     48     49   1
    52     48     50   2
    53     43     51   1
    54     44     52   1
    55     46     53   1
    56     47     54   1
    57     49     55   1
    58     49     56   1
    59     49     57   1
    60     22     42   1
