# Produced with molli package
@<TRIPOS>MOLECULE
B_10_P
56 59 0 0 0
SMALL
USER_CHARGES

@<TRIPOS>ATOM
     1 C      -5.261160     4.236792     1.597218 C          1 UNL1 0.000
     2 C      -5.864494     3.097018     1.072853 C          1 UNL1 0.000
     3 C      -5.187476     1.869740     1.103482 C          1 UNL1 0.000
     4 C      -3.908114     1.752095     1.677092 C          1 UNL1 0.000
     5 C      -3.319833     2.923649     2.189916 C          1 UNL1 0.000
     6 C      -3.996042     4.147521     2.166739 C          1 UNL1 0.000
     7 N      -3.218462     0.485583     1.731015 N          1 UNL1 0.000
     8 C      -3.898190    -0.780472     1.878929 C          1 UNL1 0.000
     9 C      -5.071197    -0.910592     2.640155 C          1 UNL1 0.000
    10 C      -5.693147    -2.156827     2.815335 C          1 UNL1 0.000
    11 C      -5.147252    -3.302508     2.239648 C          1 UNL1 0.000
    12 C      -3.988606    -3.189341     1.474871 C          1 UNL1 0.000
    13 C      -3.368639    -1.948663     1.301397 C          1 UNL1 0.000
    14 O      -5.870904     5.459064     1.656481 O          1 UNL1 0.000
    15 C      -6.417457     5.876243     0.408306 C          1 UNL1 0.000
    16 O      -5.640465    -4.572884     2.342404 O          1 UNL1 0.000
    17 C      -6.688750    -4.778706     3.280105 C          1 UNL1 0.000
    18 C      -1.781564     0.470820     1.762756 C          1 UNL1 0.000
    19 C      -1.107528     0.247953     2.969657 C          1 UNL1 0.000
    20 C       0.277285     0.182127     2.976461 C          1 UNL1 0.000
    21 C       1.008617     0.292784     1.798887 C          1 UNL1 0.000
    22 C       0.354809     0.492658     0.573875 C          1 UNL1 0.000
    23 C      -1.044618     0.615122     0.574625 C          1 UNL1 0.000
    24 F       0.922056    -0.013049     4.134660 F          1 UNL1 0.000
    25 H      -6.866862     3.134191     0.658530 H          1 UNL1 0.000
    26 H      -5.674699     1.001580     0.665703 H          1 UNL1 0.000
    27 H      -2.334231     2.899139     2.646466 H          1 UNL1 0.000
    28 H      -3.529934     5.031503     2.593577 H          1 UNL1 0.000
    29 H      -5.502102    -0.044645     3.137083 H          1 UNL1 0.000
    30 H      -6.597576    -2.194747     3.413145 H          1 UNL1 0.000
    31 H      -3.554772    -4.074651     1.016366 H          1 UNL1 0.000
    32 H      -2.466384    -1.909581     0.696906 H          1 UNL1 0.000
    33 H      -5.676156     5.798575    -0.394806 H          1 UNL1 0.000
    34 H      -6.698495     6.929564     0.505187 H          1 UNL1 0.000
    35 H      -7.321726     5.312967     0.159718 H          1 UNL1 0.000
    36 H      -6.892465    -5.853158     3.321585 H          1 UNL1 0.000
    37 H      -7.606113    -4.276510     2.957311 H          1 UNL1 0.000
    38 H      -6.393380    -4.457786     4.284725 H          1 UNL1 0.000
    39 H      -1.657418     0.129870     3.897628 H          1 UNL1 0.000
    40 H       2.090906     0.207277     1.844167 H          1 UNL1 0.000
    41 H      -1.578933     0.757037    -0.363695 H          1 UNL1 0.000
    42 C       1.110672     0.497827    -0.683079 C          1 UNL1 0.000
    43 C       1.192294     1.647097    -1.484564 C          1 UNL1 0.000
    44 C       1.909536     1.629496    -2.684451 C          1 UNL1 0.000
    45 C       2.556380     0.463425    -3.084128 C          1 UNL1 0.000
    46 C       2.465863    -0.695984    -2.321528 C          1 UNL1 0.000
    47 C       1.754140    -0.673876    -1.121408 C          1 UNL1 0.000
    48 O       3.225567     0.436447    -4.276415 O          1 UNL1 0.000
    49 C       4.604336     0.742681    -4.066500 C          1 UNL1 0.000
    50 H       0.696154     2.565211    -1.177153 H          1 UNL1 0.000
    51 H       1.959448     2.519864    -3.304106 H          1 UNL1 0.000
    52 H       2.938979    -1.613095    -2.659377 H          1 UNL1 0.000
    53 H       1.685822    -1.587123    -0.532989 H          1 UNL1 0.000
    54 H       5.120871     0.636209    -5.025090 H          1 UNL1 0.000
    55 H       5.068010     0.050360    -3.354639 H          1 UNL1 0.000
    56 H       4.726072     1.776995    -3.726932 H          1 UNL1 0.000
@<TRIPOS>BOND
     1      1      2   2
     2      2      3   1
     3      3      4   2
     4      4      5   1
     5      5      6   2
     6      6      1   1
     7      4      7   1
     8      7      8   1
     9      8      9   2
    10      9     10   1
    11     10     11   2
    12     11     12   1
    13     12     13   2
    14     13      8   1
    15     14     15   1
    16      1     14   1
    17     16     17   1
    18     11     16   1
    19     18     19   2
    20     19     20   1
    21     20     21   2
    22     21     22   1
    23     22     23   2
    24     23     18   1
    25     20     24   1
    26      7     18   1
    27      2     25   1
    28      3     26   1
    29      5     27   1
    30      6     28   1
    31      9     29   1
    32     10     30   1
    33     12     31   1
    34     13     32   1
    35     15     33   1
    36     15     34   1
    37     15     35   1
    38     17     36   1
    39     17     37   1
    40     17     38   1
    41     19     39   1
    42     21     40   1
    43     23     41   1
    44     42     43   2
    45     43     44   1
    46     44     45   2
    47     45     46   1
    48     46     47   2
    49     47     42   1
    50     48     49   1
    51     45     48   1
    52     43     50   1
    53     44     51   1
    54     46     52   1
    55     47     53   1
    56     49     54   1
    57     49     55   1
    58     49     56   1
    59     22     42   1
