# Produced with molli package
@<TRIPOS>MOLECULE
B_1_S
57 60 0 0 0
SMALL
USER_CHARGES

@<TRIPOS>ATOM
     1 C      -5.970138     4.215952     0.714720 C          1 UNL1 0.000
     2 C      -6.571866     3.077628     1.238275 C          1 UNL1 0.000
     3 C      -5.899615     1.847745     1.205325 C          1 UNL1 0.000
     4 C      -4.622568     1.724959     0.630658 C          1 UNL1 0.000
     5 C      -4.015314     2.914479     0.170706 C          1 UNL1 0.000
     6 C      -4.674686     4.147677     0.219015 C          1 UNL1 0.000
     7 N      -3.923556     0.458677     0.540174 N          1 UNL1 0.000
     8 C      -4.567760    -0.840375     0.480305 C          1 UNL1 0.000
     9 C      -5.880168    -1.019691     0.005574 C          1 UNL1 0.000
    10 C      -6.493982    -2.281139     0.007018 C          1 UNL1 0.000
    11 C      -5.786948    -3.391887     0.451727 C          1 UNL1 0.000
    12 C      -4.463806    -3.268433     0.846379 C          1 UNL1 0.000
    13 C      -3.868342    -2.005171     0.871498 C          1 UNL1 0.000
    14 O      -6.661648     5.393775     0.780908 O          1 UNL1 0.000
    15 C      -6.889112     5.939652    -0.519238 C          1 UNL1 0.000
    16 O      -6.352983    -4.634751     0.450715 O          1 UNL1 0.000
    17 C      -7.165788    -4.812197     1.612054 C          1 UNL1 0.000
    18 C      -2.484086     0.488393     0.534798 C          1 UNL1 0.000
    19 C      -1.777286     0.689844     1.728544 C          1 UNL1 0.000
    20 C      -0.380590     0.669611     1.730239 C          1 UNL1 0.000
    21 C       0.334508     0.469692     0.539347 C          1 UNL1 0.000
    22 C      -0.379336     0.285905    -0.654753 C          1 UNL1 0.000
    23 C      -1.776056     0.285494    -0.657805 C          1 UNL1 0.000
    24 H      -7.566386     3.142110     1.670861 H          1 UNL1 0.000
    25 H      -6.391212     0.991062     1.657147 H          1 UNL1 0.000
    26 H      -3.010422     2.901466    -0.243890 H          1 UNL1 0.000
    27 H      -4.161383     5.041226    -0.122687 H          1 UNL1 0.000
    28 H      -6.446448    -0.182922    -0.393508 H          1 UNL1 0.000
    29 H      -7.513506    -2.390107    -0.350629 H          1 UNL1 0.000
    30 H      -3.897089    -4.144502     1.146918 H          1 UNL1 0.000
    31 H      -2.838696    -1.950360     1.214962 H          1 UNL1 0.000
    32 H      -5.957054     6.267261    -0.991044 H          1 UNL1 0.000
    33 H      -7.530954     6.818579    -0.405948 H          1 UNL1 0.000
    34 H      -7.411010     5.220217    -1.160537 H          1 UNL1 0.000
    35 H      -7.124939    -5.869328     1.892326 H          1 UNL1 0.000
    36 H      -8.203072    -4.557420     1.374770 H          1 UNL1 0.000
    37 H      -6.824082    -4.223983     2.472922 H          1 UNL1 0.000
    38 H      -2.318890     0.833661     2.660165 H          1 UNL1 0.000
    39 H       0.150127     0.803849     2.670667 H          1 UNL1 0.000
    40 H       0.152901     0.144396    -1.593195 H          1 UNL1 0.000
    41 H      -2.316586     0.138704    -1.589499 H          1 UNL1 0.000
    42 C       1.798764     0.460684     0.540791 C          1 UNL1 0.000
    43 C       2.517479     1.662379     0.554227 C          1 UNL1 0.000
    44 C       3.915162     1.657206     0.553590 C          1 UNL1 0.000
    45 C       4.625014     0.448944     0.543016 C          1 UNL1 0.000
    46 C       3.914292    -0.755756     0.518932 C          1 UNL1 0.000
    47 C       2.512905    -0.746321     0.521719 C          1 UNL1 0.000
    48 C       6.117533     0.512715     0.548967 C          1 UNL1 0.000
    49 C       6.928744    -0.747090     0.701194 C          1 UNL1 0.000
    50 O       6.678236     1.601094     0.407018 O          1 UNL1 0.000
    51 H       1.990050     2.614606     0.559382 H          1 UNL1 0.000
    52 H       4.447470     2.607125     0.560259 H          1 UNL1 0.000
    53 H       4.416020    -1.717735     0.490088 H          1 UNL1 0.000
    54 H       1.974797    -1.693165     0.510058 H          1 UNL1 0.000
    55 H       7.181287    -1.139251    -0.287044 H          1 UNL1 0.000
    56 H       6.412596    -1.506681     1.290382 H          1 UNL1 0.000
    57 H       7.850205    -0.505752     1.241116 H          1 UNL1 0.000
@<TRIPOS>BOND
     1      1      2   2
     2      2      3   1
     3      3      4   2
     4      4      5   1
     5      5      6   2
     6      6      1   1
     7      4      7   1
     8      7      8   1
     9      8      9   2
    10      9     10   1
    11     10     11   2
    12     11     12   1
    13     12     13   2
    14     13      8   1
    15     14     15   1
    16      1     14   1
    17     16     17   1
    18     11     16   1
    19     18     19   2
    20     19     20   1
    21     20     21   2
    22     21     22   1
    23     22     23   2
    24     23     18   1
    25      7     18   1
    26      2     24   1
    27      3     25   1
    28      5     26   1
    29      6     27   1
    30      9     28   1
    31     10     29   1
    32     12     30   1
    33     13     31   1
    34     15     32   1
    35     15     33   1
    36     15     34   1
    37     17     35   1
    38     17     36   1
    39     17     37   1
    40     19     38   1
    41     20     39   1
    42     22     40   1
    43     23     41   1
    44     42     43   2
    45     43     44   1
    46     44     45   2
    47     45     46   1
    48     46     47   2
    49     47     42   1
    50     45     48   1
    51     48     49   1
    52     48     50   2
    53     43     51   1
    54     44     52   1
    55     46     53   1
    56     47     54   1
    57     49     55   1
    58     49     56   1
    59     49     57   1
    60     21     42   1
