# Produced with molli package
@<TRIPOS>MOLECULE
B_1_Q
50 53 0 0 0
SMALL
USER_CHARGES

@<TRIPOS>ATOM
     1 C      -5.933630     4.219169     0.608511 C          1 UNL1 0.000
     2 C      -6.536781     3.092739     1.155457 C          1 UNL1 0.000
     3 C      -5.870965     1.859611     1.132573 C          1 UNL1 0.000
     4 C      -4.598014     1.725366     0.551064 C          1 UNL1 0.000
     5 C      -3.994164     2.903058     0.055639 C          1 UNL1 0.000
     6 C      -4.648328     4.138792     0.090050 C          1 UNL1 0.000
     7 N      -3.896632     0.458949     0.495729 N          1 UNL1 0.000
     8 C      -4.538396    -0.841182     0.476187 C          1 UNL1 0.000
     9 C      -5.835966    -1.039675    -0.029852 C          1 UNL1 0.000
    10 C      -6.442220    -2.304672    -0.012791 C          1 UNL1 0.000
    11 C      -5.745359    -3.398476     0.488282 C          1 UNL1 0.000
    12 C      -4.439192    -3.253867     0.930410 C          1 UNL1 0.000
    13 C      -3.849527    -1.987391     0.934092 C          1 UNL1 0.000
    14 O      -6.601716     5.410487     0.670620 O          1 UNL1 0.000
    15 C      -6.999513     5.834581    -0.633895 C          1 UNL1 0.000
    16 O      -6.297463    -4.648383     0.488104 O          1 UNL1 0.000
    17 C      -7.178548    -4.800865     1.601443 C          1 UNL1 0.000
    18 C      -2.458271     0.492313     0.485325 C          1 UNL1 0.000
    19 C      -1.748762     0.727338     1.671362 C          1 UNL1 0.000
    20 C      -0.352579     0.719604     1.667613 C          1 UNL1 0.000
    21 C       0.359959     0.498451     0.478091 C          1 UNL1 0.000
    22 C      -0.358003     0.290922    -0.710741 C          1 UNL1 0.000
    23 C      -1.754161     0.274117    -0.706854 C          1 UNL1 0.000
    24 H      -7.523345     3.170883     1.603025 H          1 UNL1 0.000
    25 H      -6.359610     1.010896     1.602357 H          1 UNL1 0.000
    26 H      -2.994942     2.878527    -0.372434 H          1 UNL1 0.000
    27 H      -4.142539     5.025934    -0.279201 H          1 UNL1 0.000
    28 H      -6.391237    -0.216337    -0.470667 H          1 UNL1 0.000
    29 H      -7.446210    -2.430999    -0.406756 H          1 UNL1 0.000
    30 H      -3.879864    -4.116731     1.279518 H          1 UNL1 0.000
    31 H      -2.833258    -1.914122     1.311777 H          1 UNL1 0.000
    32 H      -6.135361     6.063825    -1.266454 H          1 UNL1 0.000
    33 H      -7.586450     6.751419    -0.523616 H          1 UNL1 0.000
    34 H      -7.634939     5.081242    -1.113199 H          1 UNL1 0.000
    35 H      -7.311925    -5.872540     1.778641 H          1 UNL1 0.000
    36 H      -8.156481    -4.366789     1.370986 H          1 UNL1 0.000
    37 H      -6.772600    -4.357912     2.519000 H          1 UNL1 0.000
    38 H      -2.288361     0.893192     2.600635 H          1 UNL1 0.000
    39 H       0.181885     0.889935     2.600351 H          1 UNL1 0.000
    40 H       0.172122     0.145118    -1.650084 H          1 UNL1 0.000
    41 H      -2.298000     0.109026    -1.633743 H          1 UNL1 0.000
    42 C       1.818782     0.474795     0.479113 C          1 UNL1 0.000
    43 N       2.443677     1.666803     0.304973 N          1 UNL1 0.000
    44 C       3.795524     1.625886     0.307561 C          1 UNL1 0.000
    45 C       4.506488     0.449549     0.477201 C          1 UNL1 0.000
    46 N       3.898185    -0.744837     0.652435 N          1 UNL1 0.000
    47 C       2.543201    -0.703256     0.648839 C          1 UNL1 0.000
    48 H       4.298492     2.576158     0.167642 H          1 UNL1 0.000
    49 H       5.589999     0.436632     0.476556 H          1 UNL1 0.000
    50 H       2.045643    -1.657588     0.789098 H          1 UNL1 0.000
@<TRIPOS>BOND
     1      1      2   2
     2      2      3   1
     3      3      4   2
     4      4      5   1
     5      5      6   2
     6      6      1   1
     7      4      7   1
     8      7      8   1
     9      8      9   2
    10      9     10   1
    11     10     11   2
    12     11     12   1
    13     12     13   2
    14     13      8   1
    15     14     15   1
    16      1     14   1
    17     16     17   1
    18     11     16   1
    19     18     19   2
    20     19     20   1
    21     20     21   2
    22     21     22   1
    23     22     23   2
    24     23     18   1
    25      7     18   1
    26      2     24   1
    27      3     25   1
    28      5     26   1
    29      6     27   1
    30      9     28   1
    31     10     29   1
    32     12     30   1
    33     13     31   1
    34     15     32   1
    35     15     33   1
    36     15     34   1
    37     17     35   1
    38     17     36   1
    39     17     37   1
    40     19     38   1
    41     20     39   1
    42     22     40   1
    43     23     41   1
    44     42     43   2
    45     43     44   1
    46     44     45   2
    47     45     46   1
    48     46     47   2
    49     47     42   1
    50     44     48   1
    51     45     49   1
    52     47     50   1
    53     21     42   1
