# Produced with molli package
@<TRIPOS>MOLECULE
B_1_P
56 59 0 0 0
SMALL
USER_CHARGES

@<TRIPOS>ATOM
     1 C      -5.994282     4.253198     0.679703 C          1 UNL1 0.000
     2 C      -6.535988     3.123271     1.283570 C          1 UNL1 0.000
     3 C      -5.857884     1.900341     1.225980 C          1 UNL1 0.000
     4 C      -4.620340     1.787722     0.568334 C          1 UNL1 0.000
     5 C      -4.070321     2.959237     0.011832 C          1 UNL1 0.000
     6 C      -4.745603     4.182458     0.069244 C          1 UNL1 0.000
     7 N      -3.915709     0.529888     0.483697 N          1 UNL1 0.000
     8 C      -4.590345    -0.744367     0.394521 C          1 UNL1 0.000
     9 C      -5.826706    -0.885278    -0.263504 C          1 UNL1 0.000
    10 C      -6.474772    -2.124547    -0.328277 C          1 UNL1 0.000
    11 C      -5.895413    -3.238997     0.266034 C          1 UNL1 0.000
    12 C      -4.649858    -3.142185     0.877699 C          1 UNL1 0.000
    13 C      -4.009428    -1.903058     0.947414 C          1 UNL1 0.000
    14 O      -6.707000     5.416275     0.779100 O          1 UNL1 0.000
    15 C      -6.914922     6.035929    -0.489546 C          1 UNL1 0.000
    16 O      -6.524998    -4.447379     0.162013 O          1 UNL1 0.000
    17 C      -7.079626    -4.847440     1.416037 C          1 UNL1 0.000
    18 C      -2.477831     0.547700     0.487916 C          1 UNL1 0.000
    19 C      -1.776799     1.011752     1.608774 C          1 UNL1 0.000
    20 C      -0.379527     1.031362     1.610415 C          1 UNL1 0.000
    21 C       0.349455     0.607148     0.488016 C          1 UNL1 0.000
    22 C      -0.361351     0.145047    -0.631586 C          1 UNL1 0.000
    23 C      -1.758354     0.106186    -0.630317 C          1 UNL1 0.000
    24 H      -7.492592     3.188915     1.795323 H          1 UNL1 0.000
    25 H      -6.300841     1.039146     1.718529 H          1 UNL1 0.000
    26 H      -3.104919     2.931010    -0.489107 H          1 UNL1 0.000
    27 H      -4.276305     5.065260    -0.351801 H          1 UNL1 0.000
    28 H      -6.289390    -0.032913    -0.753935 H          1 UNL1 0.000
    29 H      -7.425878    -2.215087    -0.845447 H          1 UNL1 0.000
    30 H      -4.173015    -4.022226     1.297601 H          1 UNL1 0.000
    31 H      -3.048011    -1.851344     1.453420 H          1 UNL1 0.000
    32 H      -5.991686     6.478016    -0.876800 H          1 UNL1 0.000
    33 H      -7.637689     6.845600    -0.350979 H          1 UNL1 0.000
    34 H      -7.336798     5.327518    -1.211770 H          1 UNL1 0.000
    35 H      -7.176444    -5.937263     1.407889 H          1 UNL1 0.000
    36 H      -8.078412    -4.413732     1.528344 H          1 UNL1 0.000
    37 H      -6.458773    -4.572909     2.276622 H          1 UNL1 0.000
    38 H      -2.320634     1.340765     2.490841 H          1 UNL1 0.000
    39 H       0.140466     1.375774     2.502142 H          1 UNL1 0.000
    40 H       0.171983    -0.172040    -1.525565 H          1 UNL1 0.000
    41 H      -2.288094    -0.242134    -1.513548 H          1 UNL1 0.000
    42 C       1.818048     0.660396     0.477527 C          1 UNL1 0.000
    43 C       2.583529    -0.489951     0.228916 C          1 UNL1 0.000
    44 C       3.981723    -0.433833     0.194471 C          1 UNL1 0.000
    45 C       4.634999     0.779971     0.399184 C          1 UNL1 0.000
    46 C       3.890871     1.923424     0.681690 C          1 UNL1 0.000
    47 C       2.495139     1.866938     0.711845 C          1 UNL1 0.000
    48 O       5.992721     0.944288     0.385744 O          1 UNL1 0.000
    49 C       6.674598     0.143615    -0.574865 C          1 UNL1 0.000
    50 H       2.091252    -1.447957     0.072283 H          1 UNL1 0.000
    51 H       4.534123    -1.351988     0.024729 H          1 UNL1 0.000
    52 H       4.397543     2.868040     0.860263 H          1 UNL1 0.000
    53 H       1.936312     2.780275     0.905277 H          1 UNL1 0.000
    54 H       7.692354     0.533824    -0.670835 H          1 UNL1 0.000
    55 H       6.198297     0.207022    -1.559881 H          1 UNL1 0.000
    56 H       6.746312    -0.895811    -0.240695 H          1 UNL1 0.000
@<TRIPOS>BOND
     1      1      2   2
     2      2      3   1
     3      3      4   2
     4      4      5   1
     5      5      6   2
     6      6      1   1
     7      4      7   1
     8      7      8   1
     9      8      9   2
    10      9     10   1
    11     10     11   2
    12     11     12   1
    13     12     13   2
    14     13      8   1
    15     14     15   1
    16      1     14   1
    17     16     17   1
    18     11     16   1
    19     18     19   2
    20     19     20   1
    21     20     21   2
    22     21     22   1
    23     22     23   2
    24     23     18   1
    25      7     18   1
    26      2     24   1
    27      3     25   1
    28      5     26   1
    29      6     27   1
    30      9     28   1
    31     10     29   1
    32     12     30   1
    33     13     31   1
    34     15     32   1
    35     15     33   1
    36     15     34   1
    37     17     35   1
    38     17     36   1
    39     17     37   1
    40     19     38   1
    41     20     39   1
    42     22     40   1
    43     23     41   1
    44     42     43   2
    45     43     44   1
    46     44     45   2
    47     45     46   1
    48     46     47   2
    49     47     42   1
    50     48     49   1
    51     45     48   1
    52     43     50   1
    53     44     51   1
    54     46     52   1
    55     47     53   1
    56     49     54   1
    57     49     55   1
    58     49     56   1
    59     21     42   1
