# Produced with molli package
@<TRIPOS>MOLECULE
B_1_O
51 54 0 0 0
SMALL
USER_CHARGES

@<TRIPOS>ATOM
     1 C      -5.915492     4.283736     0.730332 C          1 UNL1 0.000
     2 C      -6.521582     3.164874     1.289954 C          1 UNL1 0.000
     3 C      -5.869602     1.927573     1.255010 C          1 UNL1 0.000
     4 C      -4.602218     1.786909     0.659849 C          1 UNL1 0.000
     5 C      -3.988920     2.951420     0.155916 C          1 UNL1 0.000
     6 C      -4.634932     4.190767     0.196032 C          1 UNL1 0.000
     7 N      -3.939539     0.504401     0.575687 N          1 UNL1 0.000
     8 C      -4.666409    -0.739572     0.491670 C          1 UNL1 0.000
     9 C      -5.875180    -0.842555    -0.215735 C          1 UNL1 0.000
    10 C      -6.600526    -2.038617    -0.233216 C          1 UNL1 0.000
    11 C      -6.134865    -3.156815     0.455316 C          1 UNL1 0.000
    12 C      -4.903919    -3.097622     1.103357 C          1 UNL1 0.000
    13 C      -4.178807    -1.900303     1.120432 C          1 UNL1 0.000
    14 O      -6.592201     5.470946     0.785652 O          1 UNL1 0.000
    15 C      -6.873043     5.964965    -0.524541 C          1 UNL1 0.000
    16 O      -6.943101    -4.259146     0.411333 O          1 UNL1 0.000
    17 C      -6.865550    -5.104926     1.555527 C          1 UNL1 0.000
    18 C      -2.502834     0.461771     0.567351 C          1 UNL1 0.000
    19 C      -1.768671     0.916839     1.670507 C          1 UNL1 0.000
    20 C      -0.371016     0.892040     1.648327 C          1 UNL1 0.000
    21 C       0.326937     0.417998     0.525267 C          1 UNL1 0.000
    22 C      -0.417587    -0.031380    -0.577832 C          1 UNL1 0.000
    23 C      -1.815488    -0.018317    -0.555889 C          1 UNL1 0.000
    24 H      -7.504128     3.249214     1.745250 H          1 UNL1 0.000
    25 H      -6.363605     1.073652     1.711480 H          1 UNL1 0.000
    26 H      -2.998690     2.906404    -0.291594 H          1 UNL1 0.000
    27 H      -4.126321     5.070588    -0.185593 H          1 UNL1 0.000
    28 H      -6.266729     0.010504    -0.764172 H          1 UNL1 0.000
    29 H      -7.544059    -2.089101    -0.770378 H          1 UNL1 0.000
    30 H      -4.483587    -3.963730     1.603568 H          1 UNL1 0.000
    31 H      -3.235409    -1.876742     1.660894 H          1 UNL1 0.000
    32 H      -5.961435     6.292510    -1.034700 H          1 UNL1 0.000
    33 H      -7.528715     6.834632    -0.421004 H          1 UNL1 0.000
    34 H      -7.399714     5.214220    -1.125116 H          1 UNL1 0.000
    35 H      -5.976790    -5.741536     1.506167 H          1 UNL1 0.000
    36 H      -7.745708    -5.754981     1.551189 H          1 UNL1 0.000
    37 H      -6.883581    -4.529715     2.488586 H          1 UNL1 0.000
    38 H      -2.285408     1.283490     2.554013 H          1 UNL1 0.000
    39 H       0.181553     1.248274     2.515901 H          1 UNL1 0.000
    40 H       0.089648    -0.370865    -1.478729 H          1 UNL1 0.000
    41 H      -2.370671    -0.349091    -1.430053 H          1 UNL1 0.000
    42 C       1.795324     0.407505     0.508180 C          1 UNL1 0.000
    43 N       2.396116     1.594150     0.769108 N          1 UNL1 0.000
    44 C       3.746882     1.629213     0.741409 C          1 UNL1 0.000
    45 C       4.540553     0.524931     0.482540 C          1 UNL1 0.000
    46 C       3.914656    -0.688579     0.234154 C          1 UNL1 0.000
    47 C       2.522805    -0.752016     0.241188 C          1 UNL1 0.000
    48 H       4.186850     2.601930     0.938368 H          1 UNL1 0.000
    49 H       5.621691     0.610535     0.477197 H          1 UNL1 0.000
    50 H       4.501642    -1.580999     0.036474 H          1 UNL1 0.000
    51 H       2.017986    -1.693706     0.055669 H          1 UNL1 0.000
@<TRIPOS>BOND
     1      1      2   2
     2      2      3   1
     3      3      4   2
     4      4      5   1
     5      5      6   2
     6      6      1   1
     7      4      7   1
     8      7      8   1
     9      8      9   2
    10      9     10   1
    11     10     11   2
    12     11     12   1
    13     12     13   2
    14     13      8   1
    15     14     15   1
    16      1     14   1
    17     16     17   1
    18     11     16   1
    19     18     19   2
    20     19     20   1
    21     20     21   2
    22     21     22   1
    23     22     23   2
    24     23     18   1
    25      7     18   1
    26      2     24   1
    27      3     25   1
    28      5     26   1
    29      6     27   1
    30      9     28   1
    31     10     29   1
    32     12     30   1
    33     13     31   1
    34     15     32   1
    35     15     33   1
    36     15     34   1
    37     17     35   1
    38     17     36   1
    39     17     37   1
    40     19     38   1
    41     20     39   1
    42     22     40   1
    43     23     41   1
    44     42     43   2
    45     43     44   1
    46     44     45   2
    47     45     46   1
    48     46     47   2
    49     47     42   1
    50     44     48   1
    51     45     49   1
    52     46     50   1
    53     47     51   1
    54     21     42   1
