# Produced with molli package
@<TRIPOS>MOLECULE
B_1_N
49 52 0 0 0
SMALL
USER_CHARGES

@<TRIPOS>ATOM
     1 C      -6.108644     4.172060     0.758878 C          1 UNL1 0.000
     2 C      -6.612092     3.054017     1.418362 C          1 UNL1 0.000
     3 C      -5.921177     1.837848     1.372397 C          1 UNL1 0.000
     4 C      -4.708969     1.719245     0.672018 C          1 UNL1 0.000
     5 C      -4.192364     2.878804     0.061764 C          1 UNL1 0.000
     6 C      -4.882474     4.094914     0.105565 C          1 UNL1 0.000
     7 N      -3.998036     0.465270     0.589634 N          1 UNL1 0.000
     8 C      -4.671570    -0.811167     0.502613 C          1 UNL1 0.000
     9 C      -5.928495    -0.944416    -0.115004 C          1 UNL1 0.000
    10 C      -6.576660    -2.182599    -0.178663 C          1 UNL1 0.000
    11 C      -5.977481    -3.306743     0.377113 C          1 UNL1 0.000
    12 C      -4.712822    -3.219283     0.948251 C          1 UNL1 0.000
    13 C      -4.071062    -1.979342     1.016798 C          1 UNL1 0.000
    14 O      -6.844566     5.321554     0.848628 O          1 UNL1 0.000
    15 C      -7.011558     5.977478    -0.407254 C          1 UNL1 0.000
    16 O      -6.629890    -4.502164     0.278704 O          1 UNL1 0.000
    17 C      -7.050028    -4.984424     1.555746 C          1 UNL1 0.000
    18 C      -2.560237     0.490798     0.582897 C          1 UNL1 0.000
    19 C      -1.854359     0.975875     1.694224 C          1 UNL1 0.000
    20 C      -0.457622     0.973575     1.700386 C          1 UNL1 0.000
    21 C       0.250839     0.503796     0.587884 C          1 UNL1 0.000
    22 C      -0.448777     0.031082    -0.528430 C          1 UNL1 0.000
    23 C      -1.845301     0.019614    -0.528773 C          1 UNL1 0.000
    24 H      -7.550781     3.123621     1.961235 H          1 UNL1 0.000
    25 H      -6.336053     0.985186     1.903921 H          1 UNL1 0.000
    26 H      -3.246836     2.843815    -0.474315 H          1 UNL1 0.000
    27 H      -4.438193     4.966982    -0.363038 H          1 UNL1 0.000
    28 H      -6.412519    -0.086086    -0.573780 H          1 UNL1 0.000
    29 H      -7.546727    -2.265755    -0.659920 H          1 UNL1 0.000
    30 H      -4.220937    -4.105166     1.338395 H          1 UNL1 0.000
    31 H      -3.093609    -1.934975     1.491242 H          1 UNL1 0.000
    32 H      -6.088848     6.472333    -0.725397 H          1 UNL1 0.000
    33 H      -7.775425     6.750686    -0.280761 H          1 UNL1 0.000
    34 H      -7.363410     5.280218    -1.176326 H          1 UNL1 0.000
    35 H      -6.701093    -6.015093     1.668462 H          1 UNL1 0.000
    36 H      -8.144156    -4.985539     1.578291 H          1 UNL1 0.000
    37 H      -6.686213    -4.394205     2.405403 H          1 UNL1 0.000
    38 H      -2.396090     1.327155     2.569176 H          1 UNL1 0.000
    39 H       0.069522     1.322117     2.585542 H          1 UNL1 0.000
    40 H       0.085738    -0.323236    -1.406657 H          1 UNL1 0.000
    41 H      -2.380692    -0.342710    -1.403234 H          1 UNL1 0.000
    42 C       1.704532     0.480346     0.595003 C          1 UNL1 0.000
    43 C       2.448208     1.630146     0.776382 C          1 UNL1 0.000
    44 S       4.133356     1.329298     0.737638 S          1 UNL1 0.000
    45 C       3.884614    -0.342052     0.475004 C          1 UNL1 0.000
    46 C       2.546265    -0.661689     0.411703 C          1 UNL1 0.000
    47 H       2.089549     2.640059     0.923358 H          1 UNL1 0.000
    48 H       4.729994    -1.009418     0.379307 H          1 UNL1 0.000
    49 H       2.185605    -1.671324     0.254786 H          1 UNL1 0.000
@<TRIPOS>BOND
     1      1      2   2
     2      2      3   1
     3      3      4   2
     4      4      5   1
     5      5      6   2
     6      6      1   1
     7      4      7   1
     8      7      8   1
     9      8      9   2
    10      9     10   1
    11     10     11   2
    12     11     12   1
    13     12     13   2
    14     13      8   1
    15     14     15   1
    16      1     14   1
    17     16     17   1
    18     11     16   1
    19     18     19   2
    20     19     20   1
    21     20     21   2
    22     21     22   1
    23     22     23   2
    24     23     18   1
    25      7     18   1
    26      2     24   1
    27      3     25   1
    28      5     26   1
    29      6     27   1
    30      9     28   1
    31     10     29   1
    32     12     30   1
    33     13     31   1
    34     15     32   1
    35     15     33   1
    36     15     34   1
    37     17     35   1
    38     17     36   1
    39     17     37   1
    40     19     38   1
    41     20     39   1
    42     22     40   1
    43     23     41   1
    44     42     43   2
    45     43     44   1
    46     44     45   1
    47     45     46   2
    48     46     42   1
    49     43     47   1
    50     45     48   1
    51     46     49   1
    52     21     42   1
