# Produced with molli package
@<TRIPOS>MOLECULE
B_1_M
53 56 0 0 0
SMALL
USER_CHARGES

@<TRIPOS>ATOM
     1 C      -5.879624     4.361303     0.258079 C          1 UNL1 0.000
     2 C      -6.522693     3.221639    -0.212741 C          1 UNL1 0.000
     3 C      -5.857864     1.985488    -0.212057 C          1 UNL1 0.000
     4 C      -4.568121     1.840624     0.327664 C          1 UNL1 0.000
     5 C      -3.927102     3.024921     0.750962 C          1 UNL1 0.000
     6 C      -4.576020     4.265620     0.726471 C          1 UNL1 0.000
     7 N      -3.905903     0.554300     0.447052 N          1 UNL1 0.000
     8 C      -4.589774    -0.725076     0.540580 C          1 UNL1 0.000
     9 C      -5.919529    -0.852724     0.985949 C          1 UNL1 0.000
    10 C      -6.587286    -2.087868     0.972501 C          1 UNL1 0.000
    11 C      -5.909537    -3.234591     0.576222 C          1 UNL1 0.000
    12 C      -4.577590    -3.159209     0.199194 C          1 UNL1 0.000
    13 C      -3.925639    -1.922227     0.191859 C          1 UNL1 0.000
    14 O      -6.503580     5.567644     0.403075 O          1 UNL1 0.000
    15 C      -7.084281     6.069474    -0.796656 C          1 UNL1 0.000
    16 O      -6.533107    -4.442796     0.460255 O          1 UNL1 0.000
    17 C      -6.894106    -4.989082     1.726327 C          1 UNL1 0.000
    18 C      -2.465641     0.545641     0.455635 C          1 UNL1 0.000
    19 C      -1.762956     0.474230     1.666753 C          1 UNL1 0.000
    20 C      -0.365181     0.467938     1.670949 C          1 UNL1 0.000
    21 C       0.354614     0.508209     0.467188 C          1 UNL1 0.000
    22 C      -0.355021     0.566937    -0.742160 C          1 UNL1 0.000
    23 C      -1.751753     0.597814    -0.749653 C          1 UNL1 0.000
    24 H      -7.553601     3.262019    -0.550139 H          1 UNL1 0.000
    25 H      -6.382830     1.133902    -0.635357 H          1 UNL1 0.000
    26 H      -2.914297     3.002821     1.143907 H          1 UNL1 0.000
    27 H      -4.063838     5.150279     1.094910 H          1 UNL1 0.000
    28 H      -6.470115     0.009405     1.351344 H          1 UNL1 0.000
    29 H      -7.635081    -2.137951     1.253619 H          1 UNL1 0.000
    30 H      -4.045072    -4.056509    -0.102098 H          1 UNL1 0.000
    31 H      -2.885485    -1.915995    -0.121591 H          1 UNL1 0.000
    32 H      -6.303265     6.491328    -1.436843 H          1 UNL1 0.000
    33 H      -7.769400     6.876719    -0.518815 H          1 UNL1 0.000
    34 H      -7.662637     5.324042    -1.349406 H          1 UNL1 0.000
    35 H      -6.555042    -6.029695     1.748112 H          1 UNL1 0.000
    36 H      -7.983818    -4.980824     1.820367 H          1 UNL1 0.000
    37 H      -6.445093    -4.467027     2.579146 H          1 UNL1 0.000
    38 H      -2.308484     0.442940     2.606578 H          1 UNL1 0.000
    39 H       0.162054     0.433426     2.622187 H          1 UNL1 0.000
    40 H       0.180509     0.585882    -1.689269 H          1 UNL1 0.000
    41 H      -2.288175     0.638254    -1.694339 H          1 UNL1 0.000
    42 C       1.819076     0.491377     0.468286 C          1 UNL1 0.000
    43 C       2.547341     1.689577     0.421673 C          1 UNL1 0.000
    44 C       3.945631     1.676551     0.405566 C          1 UNL1 0.000
    45 C       4.635582     0.461194     0.434849 C          1 UNL1 0.000
    46 C       3.920548    -0.738986     0.485977 C          1 UNL1 0.000
    47 C       2.522093    -0.722151     0.503541 C          1 UNL1 0.000
    48 C       6.068429     0.445819     0.408011 C          1 UNL1 0.000
    49 N       7.229531     0.433634     0.383898 N          1 UNL1 0.000
    50 H       2.023024     2.643552     0.395342 H          1 UNL1 0.000
    51 H       4.487395     2.619798     0.366950 H          1 UNL1 0.000
    52 H       4.442975    -1.693621     0.508834 H          1 UNL1 0.000
    53 H       1.978362    -1.664878     0.538540 H          1 UNL1 0.000
@<TRIPOS>BOND
     1      1      2   2
     2      2      3   1
     3      3      4   2
     4      4      5   1
     5      5      6   2
     6      6      1   1
     7      4      7   1
     8      7      8   1
     9      8      9   2
    10      9     10   1
    11     10     11   2
    12     11     12   1
    13     12     13   2
    14     13      8   1
    15     14     15   1
    16      1     14   1
    17     16     17   1
    18     11     16   1
    19     18     19   2
    20     19     20   1
    21     20     21   2
    22     21     22   1
    23     22     23   2
    24     23     18   1
    25      7     18   1
    26      2     24   1
    27      3     25   1
    28      5     26   1
    29      6     27   1
    30      9     28   1
    31     10     29   1
    32     12     30   1
    33     13     31   1
    34     15     32   1
    35     15     33   1
    36     15     34   1
    37     17     35   1
    38     17     36   1
    39     17     37   1
    40     19     38   1
    41     20     39   1
    42     22     40   1
    43     23     41   1
    44     42     43   2
    45     43     44   1
    46     44     45   2
    47     45     46   1
    48     46     47   2
    49     47     42   1
    50     48     49   3
    51     45     48   1
    52     43     50   1
    53     44     51   1
    54     46     52   1
    55     47     53   1
    56     21     42   1
