# Produced with molli package
@<TRIPOS>MOLECULE
B_1_K
54 57 0 0 0
SMALL
USER_CHARGES

@<TRIPOS>ATOM
     1 C      -5.905982     4.269351     0.371161 C          1 UNL1 0.000
     2 C      -6.497663     3.141221    -0.192211 C          1 UNL1 0.000
     3 C      -5.830417     1.907753    -0.161459 C          1 UNL1 0.000
     4 C      -4.572330     1.772925     0.450307 C          1 UNL1 0.000
     5 C      -4.001731     2.930250     1.016649 C          1 UNL1 0.000
     6 C      -4.665960     4.159690     0.989471 C          1 UNL1 0.000
     7 N      -3.867272     0.513013     0.482292 N          1 UNL1 0.000
     8 C      -4.523692    -0.772426     0.519768 C          1 UNL1 0.000
     9 C      -5.741285    -0.970334     1.191403 C          1 UNL1 0.000
    10 C      -6.346471    -2.235730     1.245716 C          1 UNL1 0.000
    11 C      -5.734672    -3.332536     0.641605 C          1 UNL1 0.000
    12 C      -4.536464    -3.153317    -0.042540 C          1 UNL1 0.000
    13 C      -3.933201    -1.894080    -0.093132 C          1 UNL1 0.000
    14 O      -6.496094     5.501776     0.417264 O          1 UNL1 0.000
    15 C      -7.057597     5.912602    -0.826075 C          1 UNL1 0.000
    16 O      -6.223610    -4.608915     0.631336 O          1 UNL1 0.000
    17 C      -7.035501    -4.962378     1.745043 C          1 UNL1 0.000
    18 C      -2.430255     0.533804     0.494488 C          1 UNL1 0.000
    19 C      -1.726961     0.164687     1.649140 C          1 UNL1 0.000
    20 C      -0.330709     0.184012     1.659731 C          1 UNL1 0.000
    21 C       0.389650     0.552203     0.513085 C          1 UNL1 0.000
    22 C      -0.321325     0.913396    -0.642045 C          1 UNL1 0.000
    23 C      -1.717770     0.914829    -0.649972 C          1 UNL1 0.000
    24 H      -7.482867     3.192006    -0.644260 H          1 UNL1 0.000
    25 H      -6.305147     1.053643    -0.637915 H          1 UNL1 0.000
    26 H      -3.032778     2.887771     1.507694 H          1 UNL1 0.000
    27 H      -4.206970     5.032738     1.445466 H          1 UNL1 0.000
    28 H      -6.225819    -0.143720     1.705323 H          1 UNL1 0.000
    29 H      -7.296202    -2.331452     1.761602 H          1 UNL1 0.000
    30 H      -4.057516    -3.999795    -0.527909 H          1 UNL1 0.000
    31 H      -2.993714    -1.800609    -0.631944 H          1 UNL1 0.000
    32 H      -6.338891     5.796274    -1.645020 H          1 UNL1 0.000
    33 H      -7.302783     6.976069    -0.743898 H          1 UNL1 0.000
    34 H      -7.984996     5.373693    -1.040886 H          1 UNL1 0.000
    35 H      -7.143896    -6.051419     1.744644 H          1 UNL1 0.000
    36 H      -8.034541    -4.525985     1.652870 H          1 UNL1 0.000
    37 H      -6.565593    -4.675570     2.692364 H          1 UNL1 0.000
    38 H      -2.270829    -0.117686     2.547215 H          1 UNL1 0.000
    39 H       0.194075    -0.083547     2.574650 H          1 UNL1 0.000
    40 H       0.211817     1.185376    -1.550795 H          1 UNL1 0.000
    41 H      -2.253850     1.186330    -1.555908 H          1 UNL1 0.000
    42 C       1.855473     0.557611     0.520111 C          1 UNL1 0.000
    43 C       2.565589     1.769437     0.439219 C          1 UNL1 0.000
    44 C       3.961629     1.782211     0.437352 C          1 UNL1 0.000
    45 C       4.645276     0.567445     0.525166 C          1 UNL1 0.000
    46 C       3.970237    -0.651560     0.611509 C          1 UNL1 0.000
    47 C       2.574195    -0.649150     0.604993 C          1 UNL1 0.000
    48 N       6.097128     0.574059     0.523451 N          1 UNL1 0.000
    49 O       6.664970    -0.053155     1.430726 O          1 UNL1 0.000
    50 O       6.659292     1.202471    -0.380044 O          1 UNL1 0.000
    51 H       2.024454     2.713198     0.384665 H          1 UNL1 0.000
    52 H       4.496696     2.726610     0.375989 H          1 UNL1 0.000
    53 H       4.512171    -1.592299     0.673975 H          1 UNL1 0.000
    54 H       2.039859    -1.596948     0.656938 H          1 UNL1 0.000
@<TRIPOS>BOND
     1      1      2   2
     2      2      3   1
     3      3      4   2
     4      4      5   1
     5      5      6   2
     6      6      1   1
     7      4      7   1
     8      7      8   1
     9      8      9   2
    10      9     10   1
    11     10     11   2
    12     11     12   1
    13     12     13   2
    14     13      8   1
    15     14     15   1
    16      1     14   1
    17     16     17   1
    18     11     16   1
    19     18     19   2
    20     19     20   1
    21     20     21   2
    22     21     22   1
    23     22     23   2
    24     23     18   1
    25      7     18   1
    26      2     24   1
    27      3     25   1
    28      5     26   1
    29      6     27   1
    30      9     28   1
    31     10     29   1
    32     12     30   1
    33     13     31   1
    34     15     32   1
    35     15     33   1
    36     15     34   1
    37     17     35   1
    38     17     36   1
    39     17     37   1
    40     19     38   1
    41     20     39   1
    42     22     40   1
    43     23     41   1
    44     42     43   2
    45     43     44   1
    46     44     45   2
    47     45     46   1
    48     46     47   2
    49     47     42   1
    50     48     49   2
    51     48     50   1
    52     45     48   1
    53     43     51   1
    54     44     52   1
    55     46     53   1
    56     47     54   1
    57     21     42   1
