# Produced with molli package
@<TRIPOS>MOLECULE
B_1_T
55 58 0 0 0
SMALL
USER_CHARGES

@<TRIPOS>ATOM
     1 C      -5.924502     4.208286     0.261760 C          1 UNL1 0.000
     2 C      -6.498881     3.068356    -0.295722 C          1 UNL1 0.000
     3 C      -5.825116     1.839894    -0.229947 C          1 UNL1 0.000
     4 C      -4.584169     1.719936     0.418666 C          1 UNL1 0.000
     5 C      -4.026221     2.894016     0.965587 C          1 UNL1 0.000
     6 C      -4.694846     4.120087     0.900944 C          1 UNL1 0.000
     7 N      -3.880689     0.460155     0.507638 N          1 UNL1 0.000
     8 C      -4.532602    -0.828371     0.592145 C          1 UNL1 0.000
     9 C      -5.806734    -0.990765     1.161005 C          1 UNL1 0.000
    10 C      -6.418297    -2.252460     1.246675 C          1 UNL1 0.000
    11 C      -5.752900    -3.387114     0.786943 C          1 UNL1 0.000
    12 C      -4.491131    -3.250153     0.219854 C          1 UNL1 0.000
    13 C      -3.885352    -1.993058     0.132921 C          1 UNL1 0.000
    14 O      -6.546253     5.425703     0.286922 O          1 UNL1 0.000
    15 C      -6.927126     5.877997    -1.009897 C          1 UNL1 0.000
    16 O      -6.241552    -4.663055     0.815276 O          1 UNL1 0.000
    17 C      -7.182662    -4.938657     1.845737 C          1 UNL1 0.000
    18 C      -2.443605     0.491664     0.512284 C          1 UNL1 0.000
    19 C      -1.733009     0.304113     1.706131 C          1 UNL1 0.000
    20 C      -0.336584     0.331251     1.704967 C          1 UNL1 0.000
    21 C       0.373415     0.521333     0.510136 C          1 UNL1 0.000
    22 C      -0.344126     0.698590    -0.682694 C          1 UNL1 0.000
    23 C      -1.739949     0.696623    -0.681952 C          1 UNL1 0.000
    24 H      -7.475965     3.110460    -0.765629 H          1 UNL1 0.000
    25 H      -6.284090     0.975924    -0.704352 H          1 UNL1 0.000
    26 H      -3.066516     2.867769     1.474604 H          1 UNL1 0.000
    27 H      -4.249265     5.003941     1.349535 H          1 UNL1 0.000
    28 H      -6.341465    -0.136582     1.569410 H          1 UNL1 0.000
    29 H      -7.414723    -2.314008     1.670627 H          1 UNL1 0.000
    30 H      -3.963608    -4.127232    -0.147262 H          1 UNL1 0.000
    31 H      -2.895559    -1.942202    -0.312416 H          1 UNL1 0.000
    32 H      -6.077100     5.858541    -1.701003 H          1 UNL1 0.000
    33 H      -7.259236     6.916495    -0.914363 H          1 UNL1 0.000
    34 H      -7.764372     5.296878    -1.407561 H          1 UNL1 0.000
    35 H      -7.309428    -6.024460     1.897859 H          1 UNL1 0.000
    36 H      -8.157205    -4.498985     1.613227 H          1 UNL1 0.000
    37 H      -6.818747    -4.598878     2.821643 H          1 UNL1 0.000
    38 H      -2.271332     0.155553     2.638715 H          1 UNL1 0.000
    39 H       0.199242     0.204753     2.643480 H          1 UNL1 0.000
    40 H       0.187063     0.832468    -1.622856 H          1 UNL1 0.000
    41 H      -2.282586     0.826526    -1.614650 H          1 UNL1 0.000
    42 C       1.836826     0.532899     0.501762 C          1 UNL1 0.000
    43 C       2.542237     1.743862     0.506309 C          1 UNL1 0.000
    44 C       3.939365     1.757550     0.478444 C          1 UNL1 0.000
    45 C       4.658260     0.558540     0.436639 C          1 UNL1 0.000
    46 C       3.959352    -0.653783     0.445112 C          1 UNL1 0.000
    47 C       2.562412    -0.665740     0.476337 C          1 UNL1 0.000
    48 C       6.157652     0.559874     0.411695 C          1 UNL1 0.000
    49 H       2.001489     2.687766     0.532072 H          1 UNL1 0.000
    50 H       4.459030     2.712808     0.485273 H          1 UNL1 0.000
    51 H       4.498480    -1.598174     0.422705 H          1 UNL1 0.000
    52 H       2.038294    -1.619298     0.472984 H          1 UNL1 0.000
    53 H       6.524496    -0.089139    -0.390297 H          1 UNL1 0.000
    54 H       6.549615     0.205105     1.369905 H          1 UNL1 0.000
    55 H       6.553604     1.564323     0.229206 H          1 UNL1 0.000
@<TRIPOS>BOND
     1      1      2   2
     2      2      3   1
     3      3      4   2
     4      4      5   1
     5      5      6   2
     6      6      1   1
     7      4      7   1
     8      7      8   1
     9      8      9   2
    10      9     10   1
    11     10     11   2
    12     11     12   1
    13     12     13   2
    14     13      8   1
    15     14     15   1
    16      1     14   1
    17     16     17   1
    18     11     16   1
    19     18     19   2
    20     19     20   1
    21     20     21   2
    22     21     22   1
    23     22     23   2
    24     23     18   1
    25      7     18   1
    26      2     24   1
    27      3     25   1
    28      5     26   1
    29      6     27   1
    30      9     28   1
    31     10     29   1
    32     12     30   1
    33     13     31   1
    34     15     32   1
    35     15     33   1
    36     15     34   1
    37     17     35   1
    38     17     36   1
    39     17     37   1
    40     19     38   1
    41     20     39   1
    42     22     40   1
    43     23     41   1
    44     42     43   2
    45     43     44   1
    46     44     45   2
    47     45     46   1
    48     46     47   2
    49     47     42   1
    50     45     48   1
    51     43     49   1
    52     44     50   1
    53     46     51   1
    54     47     52   1
    55     48     53   1
    56     48     54   1
    57     48     55   1
    58     21     42   1
