# Produced with molli package
@<TRIPOS>MOLECULE
B_1_L
56 60 0 0 0
SMALL
USER_CHARGES

@<TRIPOS>ATOM
     1 C      -5.980313     4.299293     0.589377 C          1 UNL1 0.000
     2 C      -6.583581     3.172272     1.135066 C          1 UNL1 0.000
     3 C      -5.908773     1.945345     1.131886 C          1 UNL1 0.000
     4 C      -4.623096     1.816996     0.574729 C          1 UNL1 0.000
     5 C      -4.010531     2.994567     0.099272 C          1 UNL1 0.000
     6 C      -4.678301     4.224215     0.108528 C          1 UNL1 0.000
     7 N      -3.938769     0.542838     0.511509 N          1 UNL1 0.000
     8 C      -4.624796    -0.728222     0.426385 C          1 UNL1 0.000
     9 C      -5.872995    -0.855734    -0.209056 C          1 UNL1 0.000
    10 C      -6.554720    -2.076737    -0.233764 C          1 UNL1 0.000
    11 C      -5.996294    -3.196362     0.370815 C          1 UNL1 0.000
    12 C      -4.726109    -3.125876     0.931624 C          1 UNL1 0.000
    13 C      -4.049900    -1.900787     0.959907 C          1 UNL1 0.000
    14 O      -6.687285     5.469728     0.611844 O          1 UNL1 0.000
    15 C      -6.846354     6.014534    -0.698606 C          1 UNL1 0.000
    16 O      -6.720711    -4.353698     0.338810 O          1 UNL1 0.000
    17 C      -6.977121    -4.868031     1.646208 C          1 UNL1 0.000
    18 C      -2.502393     0.537612     0.507101 C          1 UNL1 0.000
    19 C      -1.789890     0.687854     1.704252 C          1 UNL1 0.000
    20 C      -0.393236     0.670766     1.697909 C          1 UNL1 0.000
    21 C       0.315762     0.530178     0.495299 C          1 UNL1 0.000
    22 C      -0.403171     0.394204    -0.701563 C          1 UNL1 0.000
    23 C      -1.799847     0.384937    -0.696092 C          1 UNL1 0.000
    24 H      -7.583314     3.241341     1.554523 H          1 UNL1 0.000
    25 H      -6.404367     1.089954     1.583453 H          1 UNL1 0.000
    26 H      -3.001479     2.972993    -0.303841 H          1 UNL1 0.000
    27 H      -4.165960     5.109859    -0.253895 H          1 UNL1 0.000
    28 H      -6.331852    -0.003758    -0.703554 H          1 UNL1 0.000
    29 H      -7.527404    -2.147617    -0.711962 H          1 UNL1 0.000
    30 H      -4.254182    -4.009933     1.349528 H          1 UNL1 0.000
    31 H      -3.069033    -1.874270     1.427504 H          1 UNL1 0.000
    32 H      -5.902615     6.412293    -1.085109 H          1 UNL1 0.000
    33 H      -7.555357     6.845226    -0.632002 H          1 UNL1 0.000
    34 H      -7.261752     5.271245    -1.389060 H          1 UNL1 0.000
    35 H      -6.388167    -5.777194     1.798048 H          1 UNL1 0.000
    36 H      -8.038356    -5.130245     1.699354 H          1 UNL1 0.000
    37 H      -6.770123    -4.154237     2.453038 H          1 UNL1 0.000
    38 H      -2.326132     0.795696     2.643522 H          1 UNL1 0.000
    39 H       0.144569     0.763685     2.639277 H          1 UNL1 0.000
    40 H       0.126215     0.296121    -1.647153 H          1 UNL1 0.000
    41 H      -2.344336     0.280760    -1.631094 H          1 UNL1 0.000
    42 C       1.780488     0.522823     0.490795 C          1 UNL1 0.000
    43 C       2.497529     1.727057     0.483368 C          1 UNL1 0.000
    44 C       3.897432     1.752016     0.482759 C          1 UNL1 0.000
    45 C       4.563886     0.522519     0.493215 C          1 UNL1 0.000
    46 C       3.891320    -0.698085     0.500770 C          1 UNL1 0.000
    47 C       2.482509    -0.696464     0.497312 C          1 UNL1 0.000
    48 N       5.912471     0.242417     0.498786 N          1 UNL1 0.000
    49 C       6.112768    -1.113250     0.512030 C          1 UNL1 0.000
    50 C       4.879082    -1.721399     0.512706 C          1 UNL1 0.000
    51 H       1.958216     2.673197     0.475999 H          1 UNL1 0.000
    52 H       4.436329     2.693310     0.475861 H          1 UNL1 0.000
    53 H       1.942322    -1.639478     0.504809 H          1 UNL1 0.000
    54 H       6.642014     0.939872     0.495518 H          1 UNL1 0.000
    55 H       7.113033    -1.525571     0.519906 H          1 UNL1 0.000
    56 H       4.701061    -2.788877     0.522042 H          1 UNL1 0.000
@<TRIPOS>BOND
     1      1      2   2
     2      2      3   1
     3      3      4   2
     4      4      5   1
     5      5      6   2
     6      6      1   1
     7      4      7   1
     8      7      8   1
     9      8      9   2
    10      9     10   1
    11     10     11   2
    12     11     12   1
    13     12     13   2
    14     13      8   1
    15     14     15   1
    16      1     14   1
    17     16     17   1
    18     11     16   1
    19     18     19   2
    20     19     20   1
    21     20     21   2
    22     21     22   1
    23     22     23   2
    24     23     18   1
    25      7     18   1
    26      2     24   1
    27      3     25   1
    28      5     26   1
    29      6     27   1
    30      9     28   1
    31     10     29   1
    32     12     30   1
    33     13     31   1
    34     15     32   1
    35     15     33   1
    36     15     34   1
    37     17     35   1
    38     17     36   1
    39     17     37   1
    40     19     38   1
    41     20     39   1
    42     22     40   1
    43     23     41   1
    44     42     43   2
    45     43     44   1
    46     44     45   2
    47     45     46   1
    48     46     47   2
    49     47     42   1
    50     45     48   1
    51     48     49   1
    52     49     50   2
    53     50     46   1
    54     43     51   1
    55     44     52   1
    56     47     53   1
    57     48     54   1
    58     49     55   1
    59     50     56   1
    60     21     42   1
