# Produced with molli package
@<TRIPOS>MOLECULE
B_1_R
53 56 0 0 0
SMALL
USER_CHARGES

@<TRIPOS>ATOM
     1 C      -5.912293     4.282301     0.341364 C          1 UNL1 0.000
     2 C      -6.497800     3.162902    -0.245140 C          1 UNL1 0.000
     3 C      -5.833297     1.927845    -0.219356 C          1 UNL1 0.000
     4 C      -4.585168     1.782197     0.410956 C          1 UNL1 0.000
     5 C      -4.016554     2.933050     0.991590 C          1 UNL1 0.000
     6 C      -4.678934     4.163811     0.971101 C          1 UNL1 0.000
     7 N      -3.891862     0.515858     0.449070 N          1 UNL1 0.000
     8 C      -4.559803    -0.763514     0.509547 C          1 UNL1 0.000
     9 C      -5.795492    -0.932769     1.155685 C          1 UNL1 0.000
    10 C      -6.409308    -2.192643     1.240802 C          1 UNL1 0.000
    11 C      -5.788294    -3.314753     0.696130 C          1 UNL1 0.000
    12 C      -4.572019    -3.164592     0.036750 C          1 UNL1 0.000
    13 C      -3.961969    -1.909988    -0.047601 C          1 UNL1 0.000
    14 O      -6.506962     5.511904     0.401959 O          1 UNL1 0.000
    15 C      -7.028759     5.952966    -0.848206 C          1 UNL1 0.000
    16 O      -6.271538    -4.592734     0.730001 O          1 UNL1 0.000
    17 C      -7.212012    -4.876208     1.758832 C          1 UNL1 0.000
    18 C      -2.455125     0.524986     0.482649 C          1 UNL1 0.000
    19 C      -1.772377     0.233455     1.672116 C          1 UNL1 0.000
    20 C      -0.375860     0.237170     1.702084 C          1 UNL1 0.000
    21 C       0.363432     0.504777     0.539800 C          1 UNL1 0.000
    22 C      -0.327007     0.795562    -0.647692 C          1 UNL1 0.000
    23 C      -1.723181     0.816495    -0.675563 C          1 UNL1 0.000
    24 H      -7.476905     3.221855    -0.709250 H          1 UNL1 0.000
    25 H      -6.302797     1.079550    -0.711200 H          1 UNL1 0.000
    26 H      -3.052593     2.885364     1.491899 H          1 UNL1 0.000
    27 H      -4.223763     5.030414     1.443050 H          1 UNL1 0.000
    28 H      -6.288448    -0.087849     1.630252 H          1 UNL1 0.000
    29 H      -7.370522    -2.262740     1.739243 H          1 UNL1 0.000
    30 H      -4.083639    -4.030803    -0.402346 H          1 UNL1 0.000
    31 H      -3.009049    -1.842315    -0.565800 H          1 UNL1 0.000
    32 H      -6.281928     5.862967    -1.644924 H          1 UNL1 0.000
    33 H      -7.283762     7.012373    -0.745628 H          1 UNL1 0.000
    34 H      -7.944709     5.414848    -1.109206 H          1 UNL1 0.000
    35 H      -7.318050    -5.963624     1.822054 H          1 UNL1 0.000
    36 H      -8.192177    -4.456064     1.513854 H          1 UNL1 0.000
    37 H      -6.862617    -4.520667     2.734466 H          1 UNL1 0.000
    38 H      -2.333081     0.026862     2.580440 H          1 UNL1 0.000
    39 H       0.135462     0.037464     2.641444 H          1 UNL1 0.000
    40 H       0.225592     1.010638    -1.560015 H          1 UNL1 0.000
    41 H      -2.243679     1.037617    -1.603871 H          1 UNL1 0.000
    42 C       1.824502     0.473923     0.558099 C          1 UNL1 0.000
    43 N       2.438566     1.669983     0.742618 N          1 UNL1 0.000
    44 C       3.794526     1.685551     0.746037 C          1 UNL1 0.000
    45 C       4.561909     0.547324     0.562326 C          1 UNL1 0.000
    46 C       3.925686    -0.680056     0.374265 C          1 UNL1 0.000
    47 C       2.531678    -0.715207     0.376511 C          1 UNL1 0.000
    48 N       6.011204     0.646626     0.557816 N          1 UNL1 0.000
    49 O       6.647867    -0.298054     0.072002 O          1 UNL1 0.000
    50 O       6.519298     1.668588     1.039481 O          1 UNL1 0.000
    51 H       4.233234     2.668880     0.896779 H          1 UNL1 0.000
    52 H       4.489462    -1.597862     0.226831 H          1 UNL1 0.000
    53 H       2.004291    -1.653683     0.229773 H          1 UNL1 0.000
@<TRIPOS>BOND
     1      1      2   2
     2      2      3   1
     3      3      4   2
     4      4      5   1
     5      5      6   2
     6      6      1   1
     7      4      7   1
     8      7      8   1
     9      8      9   2
    10      9     10   1
    11     10     11   2
    12     11     12   1
    13     12     13   2
    14     13      8   1
    15     14     15   1
    16      1     14   1
    17     16     17   1
    18     11     16   1
    19     18     19   2
    20     19     20   1
    21     20     21   2
    22     21     22   1
    23     22     23   2
    24     23     18   1
    25      7     18   1
    26      2     24   1
    27      3     25   1
    28      5     26   1
    29      6     27   1
    30      9     28   1
    31     10     29   1
    32     12     30   1
    33     13     31   1
    34     15     32   1
    35     15     33   1
    36     15     34   1
    37     17     35   1
    38     17     36   1
    39     17     37   1
    40     19     38   1
    41     20     39   1
    42     22     40   1
    43     23     41   1
    44     42     43   2
    45     43     44   1
    46     44     45   2
    47     45     46   1
    48     46     47   2
    49     47     42   1
    50     48     49   2
    51     48     50   1
    52     45     48   1
    53     44     51   1
    54     46     52   1
    55     47     53   1
    56     21     42   1
