# Produced with molli package
@<TRIPOS>MOLECULE
B_2_N
49 52 0 0 0
SMALL
USER_CHARGES

@<TRIPOS>ATOM
     1 C      -3.744246     4.217347     1.765970 C          1 UNL1 0.000
     2 C      -4.384917     3.103602     1.229712 C          1 UNL1 0.000
     3 C      -3.738346     1.856236     1.214553 C          1 UNL1 0.000
     4 C      -2.457902     1.688287     1.768950 C          1 UNL1 0.000
     5 C      -1.835328     2.840389     2.295977 C          1 UNL1 0.000
     6 C      -2.472418     4.084546     2.306645 C          1 UNL1 0.000
     7 N      -1.769006     0.413971     1.771177 N          1 UNL1 0.000
     8 C      -2.410691    -0.881028     1.884770 C          1 UNL1 0.000
     9 C      -3.697907    -1.056655     2.418976 C          1 UNL1 0.000
    10 C      -4.289824    -2.330533     2.514831 C          1 UNL1 0.000
    11 C      -3.594911    -3.465083     2.104902 C          1 UNL1 0.000
    12 C      -2.313604    -3.318775     1.588405 C          1 UNL1 0.000
    13 C      -1.729963    -2.052951     1.494571 C          1 UNL1 0.000
    14 O      -4.319767     5.453691     1.861675 O          1 UNL1 0.000
    15 C      -4.841343     5.925375     0.622510 C          1 UNL1 0.000
    16 O      -4.048190    -4.752819     2.144926 O          1 UNL1 0.000
    17 C      -5.135140    -5.011849     3.022631 C          1 UNL1 0.000
    18 C      -0.324934     0.443043     1.705567 C          1 UNL1 0.000
    19 C       0.406518     0.268773     2.897469 C          1 UNL1 0.000
    20 C       1.799692     0.307656     2.888335 C          1 UNL1 0.000
    21 C       2.480414     0.505824     1.689096 C          1 UNL1 0.000
    22 C       1.771380     0.664154     0.495594 C          1 UNL1 0.000
    23 C       0.369083     0.633507     0.489561 C          1 UNL1 0.000
    24 H      -5.392829     3.179247     0.833505 H          1 UNL1 0.000
    25 H      -4.248237     1.020254     0.743725 H          1 UNL1 0.000
    26 H      -0.839393     2.788097     2.727573 H          1 UNL1 0.000
    27 H      -1.969166     4.947561     2.733382 H          1 UNL1 0.000
    28 H      -4.262873    -0.209557     2.796496 H          1 UNL1 0.000
    29 H      -5.297538    -2.397982     2.912608 H          1 UNL1 0.000
    30 H      -1.754522    -4.193354     1.266795 H          1 UNL1 0.000
    31 H      -0.718938    -2.008132     1.099777 H          1 UNL1 0.000
    32 H      -4.104252     5.830313    -0.182680 H          1 UNL1 0.000
    33 H      -5.070407     6.989050     0.742859 H          1 UNL1 0.000
    34 H      -5.771263     5.411407     0.362674 H          1 UNL1 0.000
    35 H      -5.247134    -6.097972     3.099045 H          1 UNL1 0.000
    36 H      -6.067112    -4.605569     2.618546 H          1 UNL1 0.000
    37 H      -4.937787    -4.627109     4.028840 H          1 UNL1 0.000
    38 H      -0.123775     0.118646     3.835368 H          1 UNL1 0.000
    39 H       2.351390     0.184168     3.816723 H          1 UNL1 0.000
    40 H       3.567320     0.530970     1.680591 H          1 UNL1 0.000
    41 H       2.318979     0.801323    -0.434417 H          1 UNL1 0.000
    42 C      -0.320796     0.758713    -0.787675 C          1 UNL1 0.000
    43 C      -0.697655    -0.354078    -1.514068 C          1 UNL1 0.000
    44 S      -1.480342     0.056427    -2.979286 S          1 UNL1 0.000
    45 C      -1.294585     1.727845    -2.670203 C          1 UNL1 0.000
    46 C      -0.658847     1.966719    -1.471170 C          1 UNL1 0.000
    47 H      -0.563074    -1.396261    -1.260698 H          1 UNL1 0.000
    48 H      -1.661580     2.453217    -3.382354 H          1 UNL1 0.000
    49 H      -0.453245     2.961348    -1.095751 H          1 UNL1 0.000
@<TRIPOS>BOND
     1      1      2   2
     2      2      3   1
     3      3      4   2
     4      4      5   1
     5      5      6   2
     6      6      1   1
     7      4      7   1
     8      7      8   1
     9      8      9   2
    10      9     10   1
    11     10     11   2
    12     11     12   1
    13     12     13   2
    14     13      8   1
    15     14     15   1
    16      1     14   1
    17     16     17   1
    18     11     16   1
    19     18     19   2
    20     19     20   1
    21     20     21   2
    22     21     22   1
    23     22     23   2
    24     23     18   1
    25      7     18   1
    26      2     24   1
    27      3     25   1
    28      5     26   1
    29      6     27   1
    30      9     28   1
    31     10     29   1
    32     12     30   1
    33     13     31   1
    34     15     32   1
    35     15     33   1
    36     15     34   1
    37     17     35   1
    38     17     36   1
    39     17     37   1
    40     19     38   1
    41     20     39   1
    42     21     40   1
    43     22     41   1
    44     42     43   2
    45     43     44   1
    46     44     45   1
    47     45     46   2
    48     46     42   1
    49     43     47   1
    50     45     48   1
    51     46     49   1
    52     23     42   1
