# Produced with molli package
@<TRIPOS>MOLECULE
B_2_K
54 57 0 0 0
SMALL
USER_CHARGES

@<TRIPOS>ATOM
     1 C      -3.851602     4.214472     1.623675 C          1 UNL1 0.000
     2 C      -4.414536     3.086457     1.031933 C          1 UNL1 0.000
     3 C      -3.729210     1.863430     1.063393 C          1 UNL1 0.000
     4 C      -2.485714     1.739955     1.708231 C          1 UNL1 0.000
     5 C      -1.940029     2.900849     2.291499 C          1 UNL1 0.000
     6 C      -2.622277     4.120400     2.264226 C          1 UNL1 0.000
     7 N      -1.765943     0.486629     1.745270 N          1 UNL1 0.000
     8 C      -2.401158    -0.801733     1.920067 C          1 UNL1 0.000
     9 C      -3.670821    -0.943913     2.504996 C          1 UNL1 0.000
    10 C      -4.274546    -2.203636     2.660610 C          1 UNL1 0.000
    11 C      -3.611062    -3.357019     2.250571 C          1 UNL1 0.000
    12 C      -2.347047    -3.241207     1.682920 C          1 UNL1 0.000
    13 C      -1.746395    -1.987538     1.536364 C          1 UNL1 0.000
    14 O      -4.484385     5.425186     1.679734 O          1 UNL1 0.000
    15 C      -4.840609     5.918221     0.390473 C          1 UNL1 0.000
    16 O      -4.081791    -4.636238     2.339639 O          1 UNL1 0.000
    17 C      -5.185438    -4.846302     3.210259 C          1 UNL1 0.000
    18 C      -0.324347     0.539640     1.648301 C          1 UNL1 0.000
    19 C       0.433969     0.410806     2.828961 C          1 UNL1 0.000
    20 C       1.824647     0.477578     2.790615 C          1 UNL1 0.000
    21 C       2.474985     0.659814     1.573608 C          1 UNL1 0.000
    22 C       1.737235     0.767497     0.391488 C          1 UNL1 0.000
    23 C       0.332207     0.706797     0.402704 C          1 UNL1 0.000
    24 H      -5.391432     3.134754     0.561152 H          1 UNL1 0.000
    25 H      -4.174447     1.006161     0.564420 H          1 UNL1 0.000
    26 H      -0.981005     2.868052     2.801045 H          1 UNL1 0.000
    27 H      -2.189608     4.995005     2.742246 H          1 UNL1 0.000
    28 H      -4.210568    -0.075544     2.873900 H          1 UNL1 0.000
    29 H      -5.264318    -2.243867     3.103135 H          1 UNL1 0.000
    30 H      -1.814800    -4.132604     1.360535 H          1 UNL1 0.000
    31 H      -0.750419    -1.961142     1.105608 H          1 UNL1 0.000
    32 H      -3.984115     5.898983    -0.292811 H          1 UNL1 0.000
    33 H      -5.152608     6.960690     0.508487 H          1 UNL1 0.000
    34 H      -5.684474     5.362676    -0.029144 H          1 UNL1 0.000
    35 H      -5.346192    -5.926027     3.287864 H          1 UNL1 0.000
    36 H      -6.097650    -4.400769     2.801748 H          1 UNL1 0.000
    37 H      -4.975308    -4.467986     4.216355 H          1 UNL1 0.000
    38 H      -0.073714     0.272183     3.780923 H          1 UNL1 0.000
    39 H       2.398090     0.387873     3.709588 H          1 UNL1 0.000
    40 H       3.560714     0.708316     1.540840 H          1 UNL1 0.000
    41 H       2.267592     0.887476    -0.551531 H          1 UNL1 0.000
    42 C      -0.397246     0.744394    -0.874177 C          1 UNL1 0.000
    43 C      -0.846771     1.957705    -1.418044 C          1 UNL1 0.000
    44 C      -1.560966     1.982028    -2.620332 C          1 UNL1 0.000
    45 C      -1.829992     0.780009    -3.285604 C          1 UNL1 0.000
    46 C      -1.379567    -0.438607    -2.770658 C          1 UNL1 0.000
    47 C      -0.658162    -0.447024    -1.575202 C          1 UNL1 0.000
    48 N      -2.593230     0.796279    -4.535420 N          1 UNL1 0.000
    49 O      -2.669050     1.870955    -5.148482 O          1 UNL1 0.000
    50 O      -3.116519    -0.264775    -4.904443 O          1 UNL1 0.000
    51 H      -0.655206     2.891635    -0.892050 H          1 UNL1 0.000
    52 H      -1.906961     2.935105    -3.013760 H          1 UNL1 0.000
    53 H      -1.579951    -1.379713    -3.278228 H          1 UNL1 0.000
    54 H      -0.306971    -1.398609    -1.180784 H          1 UNL1 0.000
@<TRIPOS>BOND
     1      1      2   2
     2      2      3   1
     3      3      4   2
     4      4      5   1
     5      5      6   2
     6      6      1   1
     7      4      7   1
     8      7      8   1
     9      8      9   2
    10      9     10   1
    11     10     11   2
    12     11     12   1
    13     12     13   2
    14     13      8   1
    15     14     15   1
    16      1     14   1
    17     16     17   1
    18     11     16   1
    19     18     19   2
    20     19     20   1
    21     20     21   2
    22     21     22   1
    23     22     23   2
    24     23     18   1
    25      7     18   1
    26      2     24   1
    27      3     25   1
    28      5     26   1
    29      6     27   1
    30      9     28   1
    31     10     29   1
    32     12     30   1
    33     13     31   1
    34     15     32   1
    35     15     33   1
    36     15     34   1
    37     17     35   1
    38     17     36   1
    39     17     37   1
    40     19     38   1
    41     20     39   1
    42     21     40   1
    43     22     41   1
    44     42     43   2
    45     43     44   1
    46     44     45   2
    47     45     46   1
    48     46     47   2
    49     47     42   1
    50     48     49   2
    51     48     50   1
    52     45     48   1
    53     43     51   1
    54     44     52   1
    55     46     53   1
    56     47     54   1
    57     23     42   1
