# Produced with molli package
@<TRIPOS>MOLECULE
B_2_P
56 59 0 0 0
SMALL
USER_CHARGES

@<TRIPOS>ATOM
     1 C      -3.823116     4.225772     1.594795 C          1 UNL1 0.000
     2 C      -4.361486     3.099916     0.975334 C          1 UNL1 0.000
     3 C      -3.684970     1.871732     1.038035 C          1 UNL1 0.000
     4 C      -2.473522     1.739015     1.738179 C          1 UNL1 0.000
     5 C      -1.952203     2.895689     2.350183 C          1 UNL1 0.000
     6 C      -2.626428     4.118768     2.293461 C          1 UNL1 0.000
     7 N      -1.754791     0.485754     1.792490 N          1 UNL1 0.000
     8 C      -2.390648    -0.806439     1.940016 C          1 UNL1 0.000
     9 C      -3.689462    -0.956163     2.454099 C          1 UNL1 0.000
    10 C      -4.288283    -2.220900     2.593335 C          1 UNL1 0.000
    11 C      -3.590592    -3.373020     2.239149 C          1 UNL1 0.000
    12 C      -2.299053    -3.249967     1.740895 C          1 UNL1 0.000
    13 C      -1.705337    -1.991345     1.608267 C          1 UNL1 0.000
    14 O      -4.421313     5.455000     1.617913 O          1 UNL1 0.000
    15 C      -4.941720     5.867525     0.358002 C          1 UNL1 0.000
    16 O      -4.048193    -4.657188     2.325434 O          1 UNL1 0.000
    17 C      -5.223051    -4.863539     3.097489 C          1 UNL1 0.000
    18 C      -0.311172     0.543404     1.732356 C          1 UNL1 0.000
    19 C       0.412815     0.477448     2.940184 C          1 UNL1 0.000
    20 C       1.804041     0.540476     2.940060 C          1 UNL1 0.000
    21 C       2.490034     0.656116     1.734878 C          1 UNL1 0.000
    22 C       1.787114     0.697696     0.527504 C          1 UNL1 0.000
    23 C       0.381719     0.637662     0.498664 C          1 UNL1 0.000
    24 H      -5.310212     3.147575     0.451055 H          1 UNL1 0.000
    25 H      -4.105563     1.019551     0.508854 H          1 UNL1 0.000
    26 H      -1.016031     2.860233     2.899453 H          1 UNL1 0.000
    27 H      -2.206935     4.990514     2.788688 H          1 UNL1 0.000
    28 H      -4.258839    -0.089823     2.780398 H          1 UNL1 0.000
    29 H      -5.300422    -2.265708     2.980627 H          1 UNL1 0.000
    30 H      -1.739056    -4.138635     1.460583 H          1 UNL1 0.000
    31 H      -0.688773    -1.961299     1.229786 H          1 UNL1 0.000
    32 H      -4.203576     5.736508    -0.441158 H          1 UNL1 0.000
    33 H      -5.172031     6.935325     0.428319 H          1 UNL1 0.000
    34 H      -5.871361     5.341380     0.122619 H          1 UNL1 0.000
    35 H      -5.374571    -5.943519     3.189120 H          1 UNL1 0.000
    36 H      -6.099967    -4.443573     2.595300 H          1 UNL1 0.000
    37 H      -5.111755    -4.456884     4.108257 H          1 UNL1 0.000
    38 H      -0.123562     0.385900     3.881979 H          1 UNL1 0.000
    39 H       2.349613     0.497361     3.878947 H          1 UNL1 0.000
    40 H       3.576239     0.700279     1.730680 H          1 UNL1 0.000
    41 H       2.344324     0.761835    -0.405474 H          1 UNL1 0.000
    42 C      -0.303981     0.579084    -0.802551 C          1 UNL1 0.000
    43 C      -0.881617     1.718191    -1.382376 C          1 UNL1 0.000
    44 C      -1.550442     1.634584    -2.608497 C          1 UNL1 0.000
    45 C      -1.632282     0.410651    -3.269673 C          1 UNL1 0.000
    46 C      -1.075968    -0.732477    -2.708055 C          1 UNL1 0.000
    47 C      -0.399762    -0.643223    -1.491154 C          1 UNL1 0.000
    48 O      -2.317488     0.272250    -4.445350 O          1 UNL1 0.000
    49 C      -1.635297     0.929063    -5.512170 C          1 UNL1 0.000
    50 H      -0.833443     2.674511    -0.865956 H          1 UNL1 0.000
    51 H      -2.021828     2.518746    -3.025495 H          1 UNL1 0.000
    52 H      -1.167612    -1.689734    -3.212453 H          1 UNL1 0.000
    53 H       0.038046    -1.544007    -1.067415 H          1 UNL1 0.000
    54 H      -2.082287     0.590527    -6.451883 H          1 UNL1 0.000
    55 H      -0.570831     0.667686    -5.532967 H          1 UNL1 0.000
    56 H      -1.763287     2.014063    -5.447307 H          1 UNL1 0.000
@<TRIPOS>BOND
     1      1      2   2
     2      2      3   1
     3      3      4   2
     4      4      5   1
     5      5      6   2
     6      6      1   1
     7      4      7   1
     8      7      8   1
     9      8      9   2
    10      9     10   1
    11     10     11   2
    12     11     12   1
    13     12     13   2
    14     13      8   1
    15     14     15   1
    16      1     14   1
    17     16     17   1
    18     11     16   1
    19     18     19   2
    20     19     20   1
    21     20     21   2
    22     21     22   1
    23     22     23   2
    24     23     18   1
    25      7     18   1
    26      2     24   1
    27      3     25   1
    28      5     26   1
    29      6     27   1
    30      9     28   1
    31     10     29   1
    32     12     30   1
    33     13     31   1
    34     15     32   1
    35     15     33   1
    36     15     34   1
    37     17     35   1
    38     17     36   1
    39     17     37   1
    40     19     38   1
    41     20     39   1
    42     21     40   1
    43     22     41   1
    44     42     43   2
    45     43     44   1
    46     44     45   2
    47     45     46   1
    48     46     47   2
    49     47     42   1
    50     48     49   1
    51     45     48   1
    52     43     50   1
    53     44     51   1
    54     46     52   1
    55     47     53   1
    56     49     54   1
    57     49     55   1
    58     49     56   1
    59     23     42   1
