# Produced with molli package
@<TRIPOS>MOLECULE
B_2_R
53 56 0 0 0
SMALL
USER_CHARGES

@<TRIPOS>ATOM
     1 C      -3.623582     4.284072     1.502358 C          1 UNL1 0.000
     2 C      -4.196970     3.178887     0.876707 C          1 UNL1 0.000
     3 C      -3.595109     1.915168     0.983106 C          1 UNL1 0.000
     4 C      -2.419407     1.725200     1.728206 C          1 UNL1 0.000
     5 C      -1.854508     2.855595     2.344469 C          1 UNL1 0.000
     6 C      -2.454944     4.113844     2.241233 C          1 UNL1 0.000
     7 N      -1.779878     0.434131     1.829672 N          1 UNL1 0.000
     8 C      -2.510124    -0.810254     1.938883 C          1 UNL1 0.000
     9 C      -3.814548    -0.861606     2.464223 C          1 UNL1 0.000
    10 C      -4.534750    -2.062106     2.513192 C          1 UNL1 0.000
    11 C      -3.945779    -3.243852     2.073782 C          1 UNL1 0.000
    12 C      -2.652042    -3.231927     1.572884 C          1 UNL1 0.000
    13 C      -1.937901    -2.030362     1.523891 C          1 UNL1 0.000
    14 O      -4.104267     5.563272     1.481419 O          1 UNL1 0.000
    15 C      -5.097412     5.855117     0.506886 C          1 UNL1 0.000
    16 O      -4.646961    -4.414281     2.018430 O          1 UNL1 0.000
    17 C      -4.956263    -4.925116     3.313417 C          1 UNL1 0.000
    18 C      -0.336727     0.400546     1.753903 C          1 UNL1 0.000
    19 C       0.391922     0.238625     2.948967 C          1 UNL1 0.000
    20 C       1.784622     0.275388     2.942676 C          1 UNL1 0.000
    21 C       2.466789     0.459459     1.743757 C          1 UNL1 0.000
    22 C       1.758094     0.595875     0.547071 C          1 UNL1 0.000
    23 C       0.350397     0.565589     0.524433 C          1 UNL1 0.000
    24 H      -5.113796     3.260900     0.302591 H          1 UNL1 0.000
    25 H      -4.047277     1.077797     0.456348 H          1 UNL1 0.000
    26 H      -0.945907     2.769766     2.934024 H          1 UNL1 0.000
    27 H      -2.001871     4.967452     2.739560 H          1 UNL1 0.000
    28 H      -4.294581     0.037253     2.841444 H          1 UNL1 0.000
    29 H      -5.557856    -2.061168     2.876532 H          1 UNL1 0.000
    30 H      -2.197745    -4.146376     1.203104 H          1 UNL1 0.000
    31 H      -0.935094    -2.058758     1.104550 H          1 UNL1 0.000
    32 H      -4.746898     5.608336    -0.500921 H          1 UNL1 0.000
    33 H      -5.288015     6.932409     0.538490 H          1 UNL1 0.000
    34 H      -6.037394     5.343619     0.736042 H          1 UNL1 0.000
    35 H      -4.221630    -5.692608     3.576326 H          1 UNL1 0.000
    36 H      -5.941960    -5.397198     3.261351 H          1 UNL1 0.000
    37 H      -4.982116    -4.165020     4.101790 H          1 UNL1 0.000
    38 H      -0.140430     0.106224     3.888056 H          1 UNL1 0.000
    39 H       2.335031     0.162050     3.872984 H          1 UNL1 0.000
    40 H       3.553843     0.481670     1.735492 H          1 UNL1 0.000
    41 H       2.314154     0.702327    -0.382627 H          1 UNL1 0.000
    42 C      -0.352607     0.638349    -0.763187 C          1 UNL1 0.000
    43 N      -0.950831    -0.512842    -1.168825 N          1 UNL1 0.000
    44 C      -1.631406    -0.502789    -2.339003 C          1 UNL1 0.000
    45 C      -1.703434     0.612747    -3.152739 C          1 UNL1 0.000
    46 C      -1.057656     1.785052    -2.756836 C          1 UNL1 0.000
    47 C      -0.375330     1.797196    -1.538553 C          1 UNL1 0.000
    48 N      -2.441380     0.545578    -4.402574 N          1 UNL1 0.000
    49 O      -2.244655     1.444358    -5.232633 O          1 UNL1 0.000
    50 O      -3.221512    -0.402930    -4.562104 O          1 UNL1 0.000
    51 H      -2.112744    -1.445257    -2.587682 H          1 UNL1 0.000
    52 H      -1.084234     2.682793    -3.369143 H          1 UNL1 0.000
    53 H       0.120701     2.700376    -1.195820 H          1 UNL1 0.000
@<TRIPOS>BOND
     1      1      2   2
     2      2      3   1
     3      3      4   2
     4      4      5   1
     5      5      6   2
     6      6      1   1
     7      4      7   1
     8      7      8   1
     9      8      9   2
    10      9     10   1
    11     10     11   2
    12     11     12   1
    13     12     13   2
    14     13      8   1
    15     14     15   1
    16      1     14   1
    17     16     17   1
    18     11     16   1
    19     18     19   2
    20     19     20   1
    21     20     21   2
    22     21     22   1
    23     22     23   2
    24     23     18   1
    25      7     18   1
    26      2     24   1
    27      3     25   1
    28      5     26   1
    29      6     27   1
    30      9     28   1
    31     10     29   1
    32     12     30   1
    33     13     31   1
    34     15     32   1
    35     15     33   1
    36     15     34   1
    37     17     35   1
    38     17     36   1
    39     17     37   1
    40     19     38   1
    41     20     39   1
    42     21     40   1
    43     22     41   1
    44     42     43   2
    45     43     44   1
    46     44     45   2
    47     45     46   1
    48     46     47   2
    49     47     42   1
    50     48     49   2
    51     48     50   1
    52     45     48   1
    53     44     51   1
    54     46     52   1
    55     47     53   1
    56     23     42   1
