# Produced with molli package
@<TRIPOS>MOLECULE
B_2_T
55 58 0 0 0
SMALL
USER_CHARGES

@<TRIPOS>ATOM
     1 C      -3.913008     4.186453     2.234010 C          1 UNL1 0.000
     2 C      -4.500372     2.994762     2.640225 C          1 UNL1 0.000
     3 C      -3.785021     1.795484     2.540712 C          1 UNL1 0.000
     4 C      -2.473362     1.762095     2.031617 C          1 UNL1 0.000
     5 C      -1.880971     3.000559     1.711154 C          1 UNL1 0.000
     6 C      -2.591143     4.201381     1.807519 C          1 UNL1 0.000
     7 N      -1.749691     0.520932     1.861668 N          1 UNL1 0.000
     8 C      -2.401801    -0.763551     1.743606 C          1 UNL1 0.000
     9 C      -3.585115    -0.924702     1.000118 C          1 UNL1 0.000
    10 C      -4.217073    -2.169358     0.906524 C          1 UNL1 0.000
    11 C      -3.670482    -3.270511     1.556120 C          1 UNL1 0.000
    12 C      -2.468932    -3.156371     2.246186 C          1 UNL1 0.000
    13 C      -1.842494    -1.910867     2.340790 C          1 UNL1 0.000
    14 O      -4.648605     5.334809     2.333311 O          1 UNL1 0.000
    15 C      -4.896005     5.892480     1.041544 C          1 UNL1 0.000
    16 O      -4.292074    -4.483105     1.438515 O          1 UNL1 0.000
    17 C      -4.974310    -4.808704     2.650541 C          1 UNL1 0.000
    18 C      -0.307979     0.546008     1.779539 C          1 UNL1 0.000
    19 C       0.430130     0.705686     2.969313 C          1 UNL1 0.000
    20 C       1.823377     0.689891     2.949869 C          1 UNL1 0.000
    21 C       2.496747     0.526042     1.743018 C          1 UNL1 0.000
    22 C       1.778670     0.390275     0.552311 C          1 UNL1 0.000
    23 C       0.371735     0.402973     0.543498 C          1 UNL1 0.000
    24 H      -5.516633     2.991784     3.022935 H          1 UNL1 0.000
    25 H      -4.272029     0.884610     2.878503 H          1 UNL1 0.000
    26 H      -0.853886     3.050910     1.361806 H          1 UNL1 0.000
    27 H      -2.101405     5.135775     1.551429 H          1 UNL1 0.000
    28 H      -4.010237    -0.081459     0.461041 H          1 UNL1 0.000
    29 H      -5.128270    -2.275261     0.325815 H          1 UNL1 0.000
    30 H      -2.014387    -4.027575     2.708034 H          1 UNL1 0.000
    31 H      -0.914120    -1.844364     2.901188 H          1 UNL1 0.000
    32 H      -3.976390     6.272353     0.584289 H          1 UNL1 0.000
    33 H      -5.580577     6.736704     1.166510 H          1 UNL1 0.000
    34 H      -5.377327     5.161394     0.381598 H          1 UNL1 0.000
    35 H      -5.415205    -5.802905     2.530639 H          1 UNL1 0.000
    36 H      -5.785519    -4.097322     2.841126 H          1 UNL1 0.000
    37 H      -4.291996    -4.845931     3.506971 H          1 UNL1 0.000
    38 H      -0.094746     0.823891     3.914445 H          1 UNL1 0.000
    39 H       2.381045     0.801271     3.875972 H          1 UNL1 0.000
    40 H       3.583620     0.513116     1.723647 H          1 UNL1 0.000
    41 H       2.323063     0.285647    -0.384760 H          1 UNL1 0.000
    42 C      -0.330485     0.339800    -0.747853 C          1 UNL1 0.000
    43 C      -0.689093     1.519149    -1.418798 C          1 UNL1 0.000
    44 C      -1.352481     1.477916    -2.647356 C          1 UNL1 0.000
    45 C      -1.671643     0.251501    -3.235526 C          1 UNL1 0.000
    46 C      -1.295093    -0.929918    -2.586233 C          1 UNL1 0.000
    47 C      -0.633943    -0.885775    -1.353868 C          1 UNL1 0.000
    48 C      -2.354502     0.201852    -4.569574 C          1 UNL1 0.000
    49 H      -0.450787     2.486398    -0.983914 H          1 UNL1 0.000
    50 H      -1.617869     2.411550    -3.137411 H          1 UNL1 0.000
    51 H      -1.518498    -1.896365    -3.032144 H          1 UNL1 0.000
    52 H      -0.365271    -1.817660    -0.861125 H          1 UNL1 0.000
    53 H      -3.078135    -0.619004    -4.603392 H          1 UNL1 0.000
    54 H      -1.614908     0.060769    -5.363722 H          1 UNL1 0.000
    55 H      -2.904643     1.128444    -4.766014 H          1 UNL1 0.000
@<TRIPOS>BOND
     1      1      2   2
     2      2      3   1
     3      3      4   2
     4      4      5   1
     5      5      6   2
     6      6      1   1
     7      4      7   1
     8      7      8   1
     9      8      9   2
    10      9     10   1
    11     10     11   2
    12     11     12   1
    13     12     13   2
    14     13      8   1
    15     14     15   1
    16      1     14   1
    17     16     17   1
    18     11     16   1
    19     18     19   2
    20     19     20   1
    21     20     21   2
    22     21     22   1
    23     22     23   2
    24     23     18   1
    25      7     18   1
    26      2     24   1
    27      3     25   1
    28      5     26   1
    29      6     27   1
    30      9     28   1
    31     10     29   1
    32     12     30   1
    33     13     31   1
    34     15     32   1
    35     15     33   1
    36     15     34   1
    37     17     35   1
    38     17     36   1
    39     17     37   1
    40     19     38   1
    41     20     39   1
    42     21     40   1
    43     22     41   1
    44     42     43   2
    45     43     44   1
    46     44     45   2
    47     45     46   1
    48     46     47   2
    49     47     42   1
    50     45     48   1
    51     43     49   1
    52     44     50   1
    53     46     51   1
    54     47     52   1
    55     48     53   1
    56     48     54   1
    57     48     55   1
    58     23     42   1
