# Produced with molli package
@<TRIPOS>MOLECULE
B_2_O
51 54 0 0 0
SMALL
USER_CHARGES

@<TRIPOS>ATOM
     1 C      -3.815151     4.446547     2.182417 C          1 UNL1 0.000
     2 C      -4.372816     3.287910     2.709418 C          1 UNL1 0.000
     3 C      -3.709806     2.065948     2.561779 C          1 UNL1 0.000
     4 C      -2.473404     1.980265     1.894887 C          1 UNL1 0.000
     5 C      -1.898961     3.181258     1.438150 C          1 UNL1 0.000
     6 C      -2.563810     4.404578     1.575752 C          1 UNL1 0.000
     7 N      -1.810415     0.713332     1.694147 N          1 UNL1 0.000
     8 C      -2.542906    -0.529445     1.622480 C          1 UNL1 0.000
     9 C      -3.753480    -0.622690     0.917560 C          1 UNL1 0.000
    10 C      -4.480385    -1.817975     0.889993 C          1 UNL1 0.000
    11 C      -4.016208    -2.949456     1.561028 C          1 UNL1 0.000
    12 C      -2.796100    -2.886934     2.229897 C          1 UNL1 0.000
    13 C      -2.065590    -1.691129     2.253558 C          1 UNL1 0.000
    14 O      -4.512208     5.611599     2.345721 O          1 UNL1 0.000
    15 C      -4.807451     6.227198     1.092109 C          1 UNL1 0.000
    16 O      -4.832324    -4.044129     1.480127 O          1 UNL1 0.000
    17 C      -4.504048    -5.144953     2.319296 C          1 UNL1 0.000
    18 C      -0.368121     0.660684     1.650286 C          1 UNL1 0.000
    19 C       0.352980     0.924633     2.832598 C          1 UNL1 0.000
    20 C       1.743052     0.821712     2.858476 C          1 UNL1 0.000
    21 C       2.432673     0.460303     1.705343 C          1 UNL1 0.000
    22 C       1.734049     0.217474     0.520440 C          1 UNL1 0.000
    23 C       0.331423     0.323277     0.465811 C          1 UNL1 0.000
    24 H      -5.328691     3.328222     3.223747 H          1 UNL1 0.000
    25 H      -4.169657     1.178108     2.989050 H          1 UNL1 0.000
    26 H      -0.928469     3.178535     0.950975 H          1 UNL1 0.000
    27 H      -2.090147     5.312327     1.215773 H          1 UNL1 0.000
    28 H      -4.134322     0.234842     0.369346 H          1 UNL1 0.000
    29 H      -5.418523    -1.862813     0.343279 H          1 UNL1 0.000
    30 H      -2.377784    -3.746235     2.742360 H          1 UNL1 0.000
    31 H      -1.122722    -1.674907     2.793799 H          1 UNL1 0.000
    32 H      -3.917226     6.698439     0.663855 H          1 UNL1 0.000
    33 H      -5.548816     7.011625     1.271530 H          1 UNL1 0.000
    34 H      -5.241038     5.509921     0.385274 H          1 UNL1 0.000
    35 H      -3.565958    -5.612995     2.004093 H          1 UNL1 0.000
    36 H      -5.298587    -5.890739     2.218801 H          1 UNL1 0.000
    37 H      -4.462351    -4.845090     3.372159 H          1 UNL1 0.000
    38 H      -0.183168     1.183953     3.742643 H          1 UNL1 0.000
    39 H       2.284494     1.011225     3.781683 H          1 UNL1 0.000
    40 H       3.515809     0.370116     1.723307 H          1 UNL1 0.000
    41 H       2.287416    -0.052882    -0.377405 H          1 UNL1 0.000
    42 C      -0.343727     0.159201    -0.826257 C          1 UNL1 0.000
    43 N      -0.602681    -1.111584    -1.213450 N          1 UNL1 0.000
    44 C      -1.244065    -1.278174    -2.391767 C          1 UNL1 0.000
    45 C      -1.605701    -0.236350    -3.230820 C          1 UNL1 0.000
    46 C      -1.297197     1.058525    -2.839900 C          1 UNL1 0.000
    47 C      -0.658678     1.262908    -1.620113 C          1 UNL1 0.000
    48 H      -1.468031    -2.308083    -2.651644 H          1 UNL1 0.000
    49 H      -2.114659    -0.431866    -4.168203 H          1 UNL1 0.000
    50 H      -1.553005     1.903602    -3.472152 H          1 UNL1 0.000
    51 H      -0.408687     2.266592    -1.296483 H          1 UNL1 0.000
@<TRIPOS>BOND
     1      1      2   2
     2      2      3   1
     3      3      4   2
     4      4      5   1
     5      5      6   2
     6      6      1   1
     7      4      7   1
     8      7      8   1
     9      8      9   2
    10      9     10   1
    11     10     11   2
    12     11     12   1
    13     12     13   2
    14     13      8   1
    15     14     15   1
    16      1     14   1
    17     16     17   1
    18     11     16   1
    19     18     19   2
    20     19     20   1
    21     20     21   2
    22     21     22   1
    23     22     23   2
    24     23     18   1
    25      7     18   1
    26      2     24   1
    27      3     25   1
    28      5     26   1
    29      6     27   1
    30      9     28   1
    31     10     29   1
    32     12     30   1
    33     13     31   1
    34     15     32   1
    35     15     33   1
    36     15     34   1
    37     17     35   1
    38     17     36   1
    39     17     37   1
    40     19     38   1
    41     20     39   1
    42     21     40   1
    43     22     41   1
    44     42     43   2
    45     43     44   1
    46     44     45   2
    47     45     46   1
    48     46     47   2
    49     47     42   1
    50     44     48   1
    51     45     49   1
    52     46     50   1
    53     47     51   1
    54     23     42   1
