# Produced with molli package
@<TRIPOS>MOLECULE
B_2_Q
50 53 0 0 0
SMALL
USER_CHARGES

@<TRIPOS>ATOM
     1 C      -3.803978     4.415844     2.062390 C          1 UNL1 0.000
     2 C      -4.437051     3.267524     2.518845 C          1 UNL1 0.000
     3 C      -3.776431     2.036462     2.448088 C          1 UNL1 0.000
     4 C      -2.476483     1.928432     1.917117 C          1 UNL1 0.000
     5 C      -1.832614     3.126657     1.550051 C          1 UNL1 0.000
     6 C      -2.489215     4.359390     1.616358 C          1 UNL1 0.000
     7 N      -1.820255     0.647978     1.764601 N          1 UNL1 0.000
     8 C      -2.550981    -0.596389     1.677011 C          1 UNL1 0.000
     9 C      -3.751060    -0.693099     0.952081 C          1 UNL1 0.000
    10 C      -4.489883    -1.880765     0.932199 C          1 UNL1 0.000
    11 C      -4.044834    -2.997396     1.635144 C          1 UNL1 0.000
    12 C      -2.817499    -2.950477     2.290850 C          1 UNL1 0.000
    13 C      -2.077815    -1.761309     2.308106 C          1 UNL1 0.000
    14 O      -4.480840     5.601871     2.127217 O          1 UNL1 0.000
    15 C      -4.805161     6.062493     0.813965 C          1 UNL1 0.000
    16 O      -4.861262    -4.094301     1.595615 O          1 UNL1 0.000
    17 C      -4.874920    -4.858409     2.799150 C          1 UNL1 0.000
    18 C      -0.379433     0.590422     1.704643 C          1 UNL1 0.000
    19 C       0.351254     0.725386     2.901646 C          1 UNL1 0.000
    20 C       1.742623     0.645827     2.898551 C          1 UNL1 0.000
    21 C       2.421921     0.439588     1.701396 C          1 UNL1 0.000
    22 C       1.711878     0.323491     0.503816 C          1 UNL1 0.000
    23 C       0.307008     0.404171     0.479611 C          1 UNL1 0.000
    24 H      -5.445914     3.321962     2.917169 H          1 UNL1 0.000
    25 H      -4.297059     1.159131     2.823456 H          1 UNL1 0.000
    26 H      -0.809520     3.122116     1.187629 H          1 UNL1 0.000
    27 H      -1.968859     5.264510     1.318600 H          1 UNL1 0.000
    28 H      -4.119973     0.159520     0.387819 H          1 UNL1 0.000
    29 H      -5.425484    -1.925892     0.381813 H          1 UNL1 0.000
    30 H      -2.410542    -3.823003     2.791184 H          1 UNL1 0.000
    31 H      -1.133846    -1.753452     2.845850 H          1 UNL1 0.000
    32 H      -3.906321     6.332818     0.249594 H          1 UNL1 0.000
    33 H      -5.419958     6.961579     0.916429 H          1 UNL1 0.000
    34 H      -5.388765     5.313513     0.266129 H          1 UNL1 0.000
    35 H      -4.007767    -5.524370     2.844187 H          1 UNL1 0.000
    36 H      -5.776166    -5.479079     2.790743 H          1 UNL1 0.000
    37 H      -4.922224    -4.218941     3.688516 H          1 UNL1 0.000
    38 H      -0.178013     0.874205     3.840243 H          1 UNL1 0.000
    39 H       2.294051     0.737247     3.830808 H          1 UNL1 0.000
    40 H       3.507208     0.372630     1.696542 H          1 UNL1 0.000
    41 H       2.261006     0.172583    -0.424372 H          1 UNL1 0.000
    42 C      -0.390491     0.372691    -0.807106 C          1 UNL1 0.000
    43 N      -0.768844    -0.841780    -1.276432 N          1 UNL1 0.000
    44 C      -1.438917    -0.832962    -2.452197 C          1 UNL1 0.000
    45 C      -1.693343     0.330299    -3.160570 C          1 UNL1 0.000
    46 N      -1.290813     1.544246    -2.727557 N          1 UNL1 0.000
    47 C      -0.641156     1.534981    -1.537200 C          1 UNL1 0.000
    48 H      -1.773094    -1.798666    -2.813131 H          1 UNL1 0.000
    49 H      -2.230326     0.315915    -4.101857 H          1 UNL1 0.000
    50 H      -0.317042     2.506678    -1.181048 H          1 UNL1 0.000
@<TRIPOS>BOND
     1      1      2   2
     2      2      3   1
     3      3      4   2
     4      4      5   1
     5      5      6   2
     6      6      1   1
     7      4      7   1
     8      7      8   1
     9      8      9   2
    10      9     10   1
    11     10     11   2
    12     11     12   1
    13     12     13   2
    14     13      8   1
    15     14     15   1
    16      1     14   1
    17     16     17   1
    18     11     16   1
    19     18     19   2
    20     19     20   1
    21     20     21   2
    22     21     22   1
    23     22     23   2
    24     23     18   1
    25      7     18   1
    26      2     24   1
    27      3     25   1
    28      5     26   1
    29      6     27   1
    30      9     28   1
    31     10     29   1
    32     12     30   1
    33     13     31   1
    34     15     32   1
    35     15     33   1
    36     15     34   1
    37     17     35   1
    38     17     36   1
    39     17     37   1
    40     19     38   1
    41     20     39   1
    42     21     40   1
    43     22     41   1
    44     42     43   2
    45     43     44   1
    46     44     45   2
    47     45     46   1
    48     46     47   2
    49     47     42   1
    50     44     48   1
    51     45     49   1
    52     47     50   1
    53     23     42   1
