# Produced with molli package
@<TRIPOS>MOLECULE
B_2_M
53 56 0 0 0
SMALL
USER_CHARGES

@<TRIPOS>ATOM
     1 C      -3.806229     4.251624     2.057901 C          1 UNL1 0.000
     2 C      -4.450777     3.096444     2.481096 C          1 UNL1 0.000
     3 C      -3.780623     1.863693     2.444076 C          1 UNL1 0.000
     4 C      -2.468064     1.754730     1.955604 C          1 UNL1 0.000
     5 C      -1.813684     2.971185     1.650964 C          1 UNL1 0.000
     6 C      -2.469356     4.204187     1.695988 C          1 UNL1 0.000
     7 N      -1.779247     0.486277     1.786914 N          1 UNL1 0.000
     8 C      -2.417657    -0.817299     1.700854 C          1 UNL1 0.000
     9 C      -3.742391    -0.998714     1.264491 C          1 UNL1 0.000
    10 C      -4.346132    -2.266158     1.249494 C          1 UNL1 0.000
    11 C      -3.614646    -3.384814     1.627668 C          1 UNL1 0.000
    12 C      -2.277405    -3.260724     1.969841 C          1 UNL1 0.000
    13 C      -1.694010    -1.991197     2.018852 C          1 UNL1 0.000
    14 O      -4.489992     5.434850     2.077162 O          1 UNL1 0.000
    15 C      -4.733630     5.890858     0.743997 C          1 UNL1 0.000
    16 O      -4.174307    -4.630712     1.595011 O          1 UNL1 0.000
    17 C      -4.863479    -4.892921     2.818832 C          1 UNL1 0.000
    18 C      -0.331909     0.518120     1.719970 C          1 UNL1 0.000
    19 C       0.385781     0.625206     2.929578 C          1 UNL1 0.000
    20 C       1.777956     0.627583     2.930842 C          1 UNL1 0.000
    21 C       2.469395     0.536490     1.726616 C          1 UNL1 0.000
    22 C       1.771011     0.444198     0.518942 C          1 UNL1 0.000
    23 C       0.364403     0.432802     0.487011 C          1 UNL1 0.000
    24 H      -5.477652     3.147389     2.831701 H          1 UNL1 0.000
    25 H      -4.312582     0.995591     2.820256 H          1 UNL1 0.000
    26 H      -0.769453     2.984642     1.351902 H          1 UNL1 0.000
    27 H      -1.929850     5.112102     1.444194 H          1 UNL1 0.000
    28 H      -4.329796    -0.161000     0.901231 H          1 UNL1 0.000
    29 H      -5.378149    -2.373249     0.928441 H          1 UNL1 0.000
    30 H      -1.688915    -4.141316     2.209501 H          1 UNL1 0.000
    31 H      -0.650751    -1.941776     2.318630 H          1 UNL1 0.000
    32 H      -3.802565     6.077695     0.197323 H          1 UNL1 0.000
    33 H      -5.278849     6.837279     0.805919 H          1 UNL1 0.000
    34 H      -5.356661     5.174041     0.197092 H          1 UNL1 0.000
    35 H      -4.967618    -5.977686     2.920187 H          1 UNL1 0.000
    36 H      -5.865414    -4.453295     2.786634 H          1 UNL1 0.000
    37 H      -4.317712    -4.526015     3.696666 H          1 UNL1 0.000
    38 H      -0.155833     0.687837     3.870932 H          1 UNL1 0.000
    39 H       2.320129     0.697440     3.870243 H          1 UNL1 0.000
    40 H       3.556690     0.541521     1.724109 H          1 UNL1 0.000
    41 H       2.334214     0.388461    -0.411119 H          1 UNL1 0.000
    42 C      -0.318894     0.369276    -0.815662 C          1 UNL1 0.000
    43 C      -0.813085     1.532452    -1.427937 C          1 UNL1 0.000
    44 C      -1.461414     1.479586    -2.664774 C          1 UNL1 0.000
    45 C      -1.608336     0.257718    -3.322902 C          1 UNL1 0.000
    46 C      -1.104922    -0.907079    -2.737213 C          1 UNL1 0.000
    47 C      -0.466510    -0.850045    -1.492820 C          1 UNL1 0.000
    48 C      -2.267045     0.204879    -4.596186 C          1 UNL1 0.000
    49 N      -2.796521     0.173007    -5.626537 N          1 UNL1 0.000
    50 H      -0.695893     2.497916    -0.943194 H          1 UNL1 0.000
    51 H      -1.845639     2.397891    -3.104563 H          1 UNL1 0.000
    52 H      -1.207405    -1.867104    -3.239148 H          1 UNL1 0.000
    53 H      -0.088970    -1.768300    -1.046675 H          1 UNL1 0.000
@<TRIPOS>BOND
     1      1      2   2
     2      2      3   1
     3      3      4   2
     4      4      5   1
     5      5      6   2
     6      6      1   1
     7      4      7   1
     8      7      8   1
     9      8      9   2
    10      9     10   1
    11     10     11   2
    12     11     12   1
    13     12     13   2
    14     13      8   1
    15     14     15   1
    16      1     14   1
    17     16     17   1
    18     11     16   1
    19     18     19   2
    20     19     20   1
    21     20     21   2
    22     21     22   1
    23     22     23   2
    24     23     18   1
    25      7     18   1
    26      2     24   1
    27      3     25   1
    28      5     26   1
    29      6     27   1
    30      9     28   1
    31     10     29   1
    32     12     30   1
    33     13     31   1
    34     15     32   1
    35     15     33   1
    36     15     34   1
    37     17     35   1
    38     17     36   1
    39     17     37   1
    40     19     38   1
    41     20     39   1
    42     21     40   1
    43     22     41   1
    44     42     43   2
    45     43     44   1
    46     44     45   2
    47     45     46   1
    48     46     47   2
    49     47     42   1
    50     48     49   3
    51     45     48   1
    52     43     50   1
    53     44     51   1
    54     46     52   1
    55     47     53   1
    56     23     42   1
