# Produced with molli package
@<TRIPOS>MOLECULE
B_2_S
57 60 0 0 0
SMALL
USER_CHARGES

@<TRIPOS>ATOM
     1 C      -3.889765     4.306165     1.766941 C          1 UNL1 0.000
     2 C      -4.485250     3.194658     1.177135 C          1 UNL1 0.000
     3 C      -3.810385     1.962402     1.152906 C          1 UNL1 0.000
     4 C      -2.550340     1.802121     1.754543 C          1 UNL1 0.000
     5 C      -1.964496     2.956263     2.316743 C          1 UNL1 0.000
     6 C      -2.629451     4.186540     2.336531 C          1 UNL1 0.000
     7 N      -1.850446     0.532764     1.773513 N          1 UNL1 0.000
     8 C      -2.488746    -0.767524     1.871546 C          1 UNL1 0.000
     9 C      -3.809970    -0.945522     2.315449 C          1 UNL1 0.000
    10 C      -4.406203    -2.218669     2.370557 C          1 UNL1 0.000
    11 C      -3.677721    -3.350580     2.015849 C          1 UNL1 0.000
    12 C      -2.362930    -3.209022     1.599031 C          1 UNL1 0.000
    13 C      -1.775119    -1.942791     1.552190 C          1 UNL1 0.000
    14 O      -4.504208     5.519902     1.899829 O          1 UNL1 0.000
    15 C      -5.026574     6.028233     0.675990 C          1 UNL1 0.000
    16 O      -4.161979    -4.627675     2.010055 O          1 UNL1 0.000
    17 C      -5.023776    -4.935100     3.099913 C          1 UNL1 0.000
    18 C      -0.403413     0.573330     1.738895 C          1 UNL1 0.000
    19 C       0.297397     0.506954     2.960722 C          1 UNL1 0.000
    20 C       1.689036     0.541494     2.983929 C          1 UNL1 0.000
    21 C       2.397440     0.625678     1.788951 C          1 UNL1 0.000
    22 C       1.716672     0.670101     0.568588 C          1 UNL1 0.000
    23 C       0.311299     0.642986     0.516048 C          1 UNL1 0.000
    24 H      -5.481797     3.256280     0.751551 H          1 UNL1 0.000
    25 H      -4.286894     1.129413     0.642756 H          1 UNL1 0.000
    26 H      -0.981215     2.917530     2.776160 H          1 UNL1 0.000
    27 H      -2.158272     5.048999     2.800256 H          1 UNL1 0.000
    28 H      -4.405433    -0.100089     2.647368 H          1 UNL1 0.000
    29 H      -5.443241    -2.295254     2.681660 H          1 UNL1 0.000
    30 H      -1.781596    -4.084764     1.323867 H          1 UNL1 0.000
    31 H      -0.733711    -1.900952     1.249920 H          1 UNL1 0.000
    32 H      -4.252652     6.061021    -0.098497 H          1 UNL1 0.000
    33 H      -5.361032     7.054168     0.860599 H          1 UNL1 0.000
    34 H      -5.893617     5.453694     0.337891 H          1 UNL1 0.000
    35 H      -5.067046    -6.025051     3.189238 H          1 UNL1 0.000
    36 H      -6.036650    -4.571191     2.905032 H          1 UNL1 0.000
    37 H      -4.639273    -4.539057     4.046501 H          1 UNL1 0.000
    38 H      -0.257499     0.438851     3.893874 H          1 UNL1 0.000
    39 H       2.217466     0.501112     3.932787 H          1 UNL1 0.000
    40 H       3.484375     0.646833     1.803642 H          1 UNL1 0.000
    41 H       2.292069     0.714407    -0.354434 H          1 UNL1 0.000
    42 C      -0.356540     0.609831    -0.794804 C          1 UNL1 0.000
    43 C      -0.825473     1.779009    -1.404601 C          1 UNL1 0.000
    44 C      -1.468520     1.726929    -2.647146 C          1 UNL1 0.000
    45 C      -1.658534     0.502701    -3.302667 C          1 UNL1 0.000
    46 C      -1.194621    -0.669347    -2.701831 C          1 UNL1 0.000
    47 C      -0.536786    -0.609338    -1.469036 C          1 UNL1 0.000
    48 C      -2.357277     0.499549    -4.623576 C          1 UNL1 0.000
    49 C      -2.471243    -0.791810    -5.395094 C          1 UNL1 0.000
    50 O      -2.847406     1.537915    -5.058009 O          1 UNL1 0.000
    51 H      -0.702107     2.740029    -0.909199 H          1 UNL1 0.000
    52 H      -1.826231     2.651008    -3.097494 H          1 UNL1 0.000
    53 H      -1.335070    -1.644580    -3.157562 H          1 UNL1 0.000
    54 H      -0.175729    -1.534482    -1.024502 H          1 UNL1 0.000
    55 H      -3.293564    -1.390325    -4.995300 H          1 UNL1 0.000
    56 H      -1.535829    -1.355813    -5.372032 H          1 UNL1 0.000
    57 H      -2.676777    -0.560531    -6.445113 H          1 UNL1 0.000
@<TRIPOS>BOND
     1      1      2   2
     2      2      3   1
     3      3      4   2
     4      4      5   1
     5      5      6   2
     6      6      1   1
     7      4      7   1
     8      7      8   1
     9      8      9   2
    10      9     10   1
    11     10     11   2
    12     11     12   1
    13     12     13   2
    14     13      8   1
    15     14     15   1
    16      1     14   1
    17     16     17   1
    18     11     16   1
    19     18     19   2
    20     19     20   1
    21     20     21   2
    22     21     22   1
    23     22     23   2
    24     23     18   1
    25      7     18   1
    26      2     24   1
    27      3     25   1
    28      5     26   1
    29      6     27   1
    30      9     28   1
    31     10     29   1
    32     12     30   1
    33     13     31   1
    34     15     32   1
    35     15     33   1
    36     15     34   1
    37     17     35   1
    38     17     36   1
    39     17     37   1
    40     19     38   1
    41     20     39   1
    42     21     40   1
    43     22     41   1
    44     42     43   2
    45     43     44   1
    46     44     45   2
    47     45     46   1
    48     46     47   2
    49     47     42   1
    50     45     48   1
    51     48     49   1
    52     48     50   2
    53     43     51   1
    54     44     52   1
    55     46     53   1
    56     47     54   1
    57     49     55   1
    58     49     56   1
    59     49     57   1
    60     23     42   1
