# Produced with molli package
@<TRIPOS>MOLECULE
B_2_L
56 60 0 0 0
SMALL
USER_CHARGES

@<TRIPOS>ATOM
     1 C      -3.725619     4.251238     1.598835 C          1 UNL1 0.000
     2 C      -4.323305     3.133540     1.021400 C          1 UNL1 0.000
     3 C      -3.668081     1.892753     1.049063 C          1 UNL1 0.000
     4 C      -2.418655     1.737569     1.674999 C          1 UNL1 0.000
     5 C      -1.837247     2.887508     2.244121 C          1 UNL1 0.000
     6 C      -2.489094     4.124040     2.220726 C          1 UNL1 0.000
     7 N      -1.727834     0.466991     1.696665 N          1 UNL1 0.000
     8 C      -2.393606    -0.809920     1.841463 C          1 UNL1 0.000
     9 C      -3.657228    -0.937532     2.443225 C          1 UNL1 0.000
    10 C      -4.287378    -2.186789     2.577715 C          1 UNL1 0.000
    11 C      -3.656541    -3.344206     2.128779 C          1 UNL1 0.000
    12 C      -2.402171    -3.243047     1.538610 C          1 UNL1 0.000
    13 C      -1.774977    -2.000006     1.414683 C          1 UNL1 0.000
    14 O      -4.299396     5.491010     1.654230 O          1 UNL1 0.000
    15 C      -4.885383     5.910772     0.425983 C          1 UNL1 0.000
    16 O      -4.159350    -4.612879     2.194710 O          1 UNL1 0.000
    17 C      -5.179522    -4.832434     3.159793 C          1 UNL1 0.000
    18 C      -0.283419     0.485812     1.626336 C          1 UNL1 0.000
    19 C       0.444849     0.384568     2.829399 C          1 UNL1 0.000
    20 C       1.837160     0.420164     2.824073 C          1 UNL1 0.000
    21 C       2.520182     0.541321     1.617882 C          1 UNL1 0.000
    22 C       1.812854     0.616388     0.414838 C          1 UNL1 0.000
    23 C       0.406109     0.586970     0.391182 C          1 UNL1 0.000
    24 H      -5.302663     3.196641     0.558763 H          1 UNL1 0.000
    25 H      -4.138359     1.047179     0.552487 H          1 UNL1 0.000
    26 H      -0.868693     2.837889     2.733155 H          1 UNL1 0.000
    27 H      -2.021681     4.989813     2.682176 H          1 UNL1 0.000
    28 H      -4.169875    -0.065676     2.840912 H          1 UNL1 0.000
    29 H      -5.272141    -2.216959     3.031667 H          1 UNL1 0.000
    30 H      -1.897404    -4.136346     1.180056 H          1 UNL1 0.000
    31 H      -0.788770    -1.984392     0.962754 H          1 UNL1 0.000
    32 H      -4.192478     5.777084    -0.412239 H          1 UNL1 0.000
    33 H      -5.104404     6.979800     0.511675 H          1 UNL1 0.000
    34 H      -5.830170     5.392037     0.239423 H          1 UNL1 0.000
    35 H      -5.345513    -5.912086     3.227149 H          1 UNL1 0.000
    36 H      -6.120053    -4.368207     2.848186 H          1 UNL1 0.000
    37 H      -4.873106    -4.480489     4.150765 H          1 UNL1 0.000
    38 H      -0.089021     0.291315     3.772405 H          1 UNL1 0.000
    39 H       2.385756     0.352872     3.759706 H          1 UNL1 0.000
    40 H       3.606964     0.564953     1.608952 H          1 UNL1 0.000
    41 H       2.366734     0.685624    -0.519920 H          1 UNL1 0.000
    42 C      -0.285497     0.571146    -0.909147 C          1 UNL1 0.000
    43 C      -0.874157     1.726616    -1.438047 C          1 UNL1 0.000
    44 C      -1.559103     1.713844    -2.660971 C          1 UNL1 0.000
    45 C      -1.638984     0.497542    -3.347394 C          1 UNL1 0.000
    46 C      -1.055810    -0.673359    -2.867717 C          1 UNL1 0.000
    47 C      -0.361135    -0.629031    -1.644341 C          1 UNL1 0.000
    48 N      -2.250606     0.182352    -4.539839 N          1 UNL1 0.000
    49 C      -2.078634    -1.146580    -4.825507 C          1 UNL1 0.000
    50 C      -1.338908    -1.702622    -3.806945 C          1 UNL1 0.000
    51 H      -0.815193     2.661176    -0.882626 H          1 UNL1 0.000
    52 H      -2.018286     2.617339    -3.047284 H          1 UNL1 0.000
    53 H       0.097444    -1.536214    -1.261227 H          1 UNL1 0.000
    54 H      -2.758943     0.840505    -5.113889 H          1 UNL1 0.000
    55 H      -2.497702    -1.581473    -5.722600 H          1 UNL1 0.000
    56 H      -1.038982    -2.739901    -3.736691 H          1 UNL1 0.000
@<TRIPOS>BOND
     1      1      2   2
     2      2      3   1
     3      3      4   2
     4      4      5   1
     5      5      6   2
     6      6      1   1
     7      4      7   1
     8      7      8   1
     9      8      9   2
    10      9     10   1
    11     10     11   2
    12     11     12   1
    13     12     13   2
    14     13      8   1
    15     14     15   1
    16      1     14   1
    17     16     17   1
    18     11     16   1
    19     18     19   2
    20     19     20   1
    21     20     21   2
    22     21     22   1
    23     22     23   2
    24     23     18   1
    25      7     18   1
    26      2     24   1
    27      3     25   1
    28      5     26   1
    29      6     27   1
    30      9     28   1
    31     10     29   1
    32     12     30   1
    33     13     31   1
    34     15     32   1
    35     15     33   1
    36     15     34   1
    37     17     35   1
    38     17     36   1
    39     17     37   1
    40     19     38   1
    41     20     39   1
    42     21     40   1
    43     22     41   1
    44     42     43   2
    45     43     44   1
    46     44     45   2
    47     45     46   1
    48     46     47   2
    49     47     42   1
    50     45     48   1
    51     48     49   1
    52     49     50   2
    53     50     46   1
    54     43     51   1
    55     44     52   1
    56     47     53   1
    57     48     54   1
    58     49     55   1
    59     50     56   1
    60     23     42   1
