# Produced with molli package
@<TRIPOS>MOLECULE
B_3_K
66 71 0 0 0
SMALL
USER_CHARGES

@<TRIPOS>ATOM
     1 C      -6.003472     4.328142     0.717604 C          1 UNL1 0.000
     2 C      -6.613369     3.193688     1.238248 C          1 UNL1 0.000
     3 C      -5.951265     1.960758     1.188102 C          1 UNL1 0.000
     4 C      -4.673910     1.836814     0.610309 C          1 UNL1 0.000
     5 C      -4.059843     3.021564     0.151980 C          1 UNL1 0.000
     6 C      -4.714424     4.256152     0.206069 C          1 UNL1 0.000
     7 N      -3.986944     0.561791     0.534359 N          1 UNL1 0.000
     8 C      -4.660025    -0.720901     0.450031 C          1 UNL1 0.000
     9 C      -5.931862    -0.859562    -0.138197 C          1 UNL1 0.000
    10 C      -6.578479    -2.101064    -0.196509 C          1 UNL1 0.000
    11 C      -5.952589    -3.227863     0.321370 C          1 UNL1 0.000
    12 C      -4.670265    -3.141143     0.845156 C          1 UNL1 0.000
    13 C      -4.034647    -1.898756     0.911525 C          1 UNL1 0.000
    14 O      -6.664845     5.522139     0.794738 O          1 UNL1 0.000
    15 C      -7.108538     5.931246    -0.499898 C          1 UNL1 0.000
    16 O      -6.566582    -4.446130     0.247083 O          1 UNL1 0.000
    17 C      -7.283838    -4.708799     1.454209 C          1 UNL1 0.000
    18 C      -2.527801     0.649883     3.042365 C          1 UNL1 0.000
    19 C      -1.861201     0.648928     4.265494 C          1 UNL1 0.000
    20 C      -0.480096     0.614689     4.283453 C          1 UNL1 0.000
    21 C       0.221688     0.588256     3.078070 C          1 UNL1 0.000
    22 C      -0.427632     0.588508     1.814330 C          1 UNL1 0.000
    23 C      -1.840719     0.612426     1.801478 C          1 UNL1 0.000
    24 C       0.287619     0.556510     0.574047 C          1 UNL1 0.000
    25 C      -0.404877     0.526543    -0.679424 C          1 UNL1 0.000
    26 C      -1.817997     0.515574    -0.693041 C          1 UNL1 0.000
    27 C      -2.524190     0.567373     0.547624 C          1 UNL1 0.000
    28 C       0.267757     0.512675    -1.930926 C          1 UNL1 0.000
    29 C      -0.411435     0.484269    -3.149047 C          1 UNL1 0.000
    30 C      -1.792874     0.464854    -3.156763 C          1 UNL1 0.000
    31 C      -2.482187     0.478724    -1.946344 C          1 UNL1 0.000
    32 H      -7.600886     3.264775     1.684719 H          1 UNL1 0.000
    33 H      -6.444260     1.100548     1.632733 H          1 UNL1 0.000
    34 H      -3.057731     3.006757    -0.267565 H          1 UNL1 0.000
    35 H      -4.208702     5.150618    -0.145224 H          1 UNL1 0.000
    36 H      -6.431137    -0.004304    -0.585693 H          1 UNL1 0.000
    37 H      -7.559915    -2.184209    -0.653694 H          1 UNL1 0.000
    38 H      -4.162665    -4.031459     1.204211 H          1 UNL1 0.000
    39 H      -3.038344    -1.872934     1.343678 H          1 UNL1 0.000
    40 H      -6.268773     6.103463    -1.181806 H          1 UNL1 0.000
    41 H      -7.647411     6.876674    -0.386450 H          1 UNL1 0.000
    42 H      -7.800090     5.195119    -0.925048 H          1 UNL1 0.000
    43 H      -7.446283    -5.788846     1.520197 H          1 UNL1 0.000
    44 H      -8.260361    -4.215044     1.421630 H          1 UNL1 0.000
    45 H      -6.734899    -4.397091     2.350962 H          1 UNL1 0.000
    46 H      -3.615993     0.667910     3.066199 H          1 UNL1 0.000
    47 H      -2.425140     0.670106     5.193900 H          1 UNL1 0.000
    48 H       0.056584     0.607804     5.228224 H          1 UNL1 0.000
    49 H       1.307798     0.559221     3.142609 H          1 UNL1 0.000
    50 H       1.355125     0.528321    -1.975571 H          1 UNL1 0.000
    51 H       0.143102     0.477101    -4.083438 H          1 UNL1 0.000
    52 H      -2.339409     0.442272    -4.095459 H          1 UNL1 0.000
    53 H      -3.569898     0.470725    -1.990254 H          1 UNL1 0.000
    54 C       1.769636     0.557851     0.586524 C          1 UNL1 0.000
    55 C       2.480283     1.769040     0.661313 C          1 UNL1 0.000
    56 C       3.877196     1.778625     0.669337 C          1 UNL1 0.000
    57 C       4.571297     0.565223     0.594735 C          1 UNL1 0.000
    58 C       3.883929    -0.651559     0.518431 C          1 UNL1 0.000
    59 C       2.486838    -0.649880     0.518631 C          1 UNL1 0.000
    60 N       6.036022     0.570809     0.594878 N          1 UNL1 0.000
    61 O       6.606925     1.579479     1.029478 O          1 UNL1 0.000
    62 O       6.613258    -0.436617     0.158288 O          1 UNL1 0.000
    63 H       1.938830     2.712883     0.714522 H          1 UNL1 0.000
    64 H       4.403063     2.729199     0.728072 H          1 UNL1 0.000
    65 H       4.415587    -1.599262     0.461310 H          1 UNL1 0.000
    66 H       1.950805    -1.596475     0.460396 H          1 UNL1 0.000
@<TRIPOS>BOND
     1      1      2   2
     2      2      3   1
     3      3      4   2
     4      4      5   1
     5      5      6   2
     6      6      1   1
     7      4      7   1
     8      7      8   1
     9      8      9   2
    10      9     10   1
    11     10     11   2
    12     11     12   1
    13     12     13   2
    14     13      8   1
    15     14     15   1
    16      1     14   1
    17     16     17   1
    18     11     16   1
    19     18     19   2
    20     19     20   1
    21     20     21   2
    22     21     22   1
    23     22     23   2
    24     23     18   1
    25     22     24   1
    26     24     25   2
    27     25     26   1
    28     26     27   2
    29     27     23   1
    30     25     28   1
    31     28     29   2
    32     29     30   1
    33     30     31   2
    34     31     26   1
    35      7     27   1
    36      2     32   1
    37      3     33   1
    38      5     34   1
    39      6     35   1
    40      9     36   1
    41     10     37   1
    42     12     38   1
    43     13     39   1
    44     15     40   1
    45     15     41   1
    46     15     42   1
    47     17     43   1
    48     17     44   1
    49     17     45   1
    50     18     46   1
    51     19     47   1
    52     20     48   1
    53     21     49   1
    54     28     50   1
    55     29     51   1
    56     30     52   1
    57     31     53   1
    58     54     55   2
    59     55     56   1
    60     56     57   2
    61     57     58   1
    62     58     59   2
    63     59     54   1
    64     60     61   2
    65     60     62   1
    66     57     60   1
    67     55     63   1
    68     56     64   1
    69     58     65   1
    70     59     66   1
    71     24     54   1
