# Produced with molli package
@<TRIPOS>MOLECULE
B_3_Q
62 67 0 0 0
SMALL
USER_CHARGES

@<TRIPOS>ATOM
     1 C      -6.058179     4.173373     0.771890 C          1 UNL1 0.000
     2 C      -6.617882     3.023216     1.315155 C          1 UNL1 0.000
     3 C      -5.921525     1.808853     1.256393 C          1 UNL1 0.000
     4 C      -4.658907     1.716323     0.643714 C          1 UNL1 0.000
     5 C      -4.090798     2.918110     0.169666 C          1 UNL1 0.000
     6 C      -4.778325     4.134370     0.234508 C          1 UNL1 0.000
     7 N      -3.934415     0.462589     0.548953 N          1 UNL1 0.000
     8 C      -4.558730    -0.847745     0.496240 C          1 UNL1 0.000
     9 C      -5.866228    -1.039784     0.011504 C          1 UNL1 0.000
    10 C      -6.464135    -2.307676    -0.000855 C          1 UNL1 0.000
    11 C      -5.749843    -3.411409     0.448999 C          1 UNL1 0.000
    12 C      -4.432184    -3.273419     0.858389 C          1 UNL1 0.000
    13 C      -3.848201    -2.004124     0.887253 C          1 UNL1 0.000
    14 O      -6.771599     5.336642     0.857749 O          1 UNL1 0.000
    15 C      -7.076309     5.852696    -0.438686 C          1 UNL1 0.000
    16 O      -6.304070    -4.660260     0.427789 O          1 UNL1 0.000
    17 C      -7.104672    -4.859950     1.593634 C          1 UNL1 0.000
    18 C      -2.430922     0.612697     3.027048 C          1 UNL1 0.000
    19 C      -1.740909     0.647599     4.236572 C          1 UNL1 0.000
    20 C      -0.359481     0.671892     4.227185 C          1 UNL1 0.000
    21 C       0.319475     0.659400     3.008570 C          1 UNL1 0.000
    22 C      -0.354490     0.615008     1.758542 C          1 UNL1 0.000
    23 C      -1.767110     0.594022     1.773174 C          1 UNL1 0.000
    24 C       0.336929     0.580980     0.505696 C          1 UNL1 0.000
    25 C      -0.376961     0.549869    -0.734342 C          1 UNL1 0.000
    26 C      -1.789042     0.499271    -0.721751 C          1 UNL1 0.000
    27 C      -2.472381     0.523116     0.532501 C          1 UNL1 0.000
    28 C       0.273369     0.572238    -1.997311 C          1 UNL1 0.000
    29 C      -0.428150     0.534732    -3.202579 C          1 UNL1 0.000
    30 C      -1.808391     0.468060    -3.185059 C          1 UNL1 0.000
    31 C      -2.475610     0.449041    -1.962269 C          1 UNL1 0.000
    32 H      -7.596797     3.067234     1.783932 H          1 UNL1 0.000
    33 H      -6.377845     0.940268     1.722644 H          1 UNL1 0.000
    34 H      -3.096729     2.933595    -0.269230 H          1 UNL1 0.000
    35 H      -4.297134     5.038701    -0.125457 H          1 UNL1 0.000
    36 H      -6.438038    -0.207351    -0.389103 H          1 UNL1 0.000
    37 H      -7.476785    -2.427928    -0.373988 H          1 UNL1 0.000
    38 H      -3.858543    -4.143751     1.163030 H          1 UNL1 0.000
    39 H      -2.820767    -1.941986     1.234382 H          1 UNL1 0.000
    40 H      -6.176027     6.185910    -0.965263 H          1 UNL1 0.000
    41 H      -7.727041     6.722549    -0.308433 H          1 UNL1 0.000
    42 H      -7.617860     5.111542    -1.037609 H          1 UNL1 0.000
    43 H      -7.292229    -5.933503     1.692003 H          1 UNL1 0.000
    44 H      -8.068539    -4.352269     1.485159 H          1 UNL1 0.000
    45 H      -6.598064    -4.523048     2.506099 H          1 UNL1 0.000
    46 H      -3.518229     0.591557     3.072435 H          1 UNL1 0.000
    47 H      -2.287024     0.658166     5.175680 H          1 UNL1 0.000
    48 H       0.195620     0.705402     5.160609 H          1 UNL1 0.000
    49 H       1.407112     0.695346     3.051017 H          1 UNL1 0.000
    50 H       1.358426     0.641215    -2.061610 H          1 UNL1 0.000
    51 H       0.108436     0.562955    -4.147059 H          1 UNL1 0.000
    52 H      -2.371231     0.439767    -4.113938 H          1 UNL1 0.000
    53 H      -3.563332     0.408261    -1.985278 H          1 UNL1 0.000
    54 C       1.809176     0.537164     0.494373 C          1 UNL1 0.000
    55 N       2.456728     1.730025     0.536721 N          1 UNL1 0.000
    56 C       3.807969     1.666073     0.533580 C          1 UNL1 0.000
    57 C       4.496912     0.465823     0.488972 C          1 UNL1 0.000
    58 N       3.867655    -0.729281     0.445245 N          1 UNL1 0.000
    59 C       2.513195    -0.665907     0.449652 C          1 UNL1 0.000
    60 H       4.327452     2.616826     0.569307 H          1 UNL1 0.000
    61 H       5.580441     0.433822     0.487720 H          1 UNL1 0.000
    62 H       1.999196    -1.621085     0.416282 H          1 UNL1 0.000
@<TRIPOS>BOND
     1      1      2   2
     2      2      3   1
     3      3      4   2
     4      4      5   1
     5      5      6   2
     6      6      1   1
     7      4      7   1
     8      7      8   1
     9      8      9   2
    10      9     10   1
    11     10     11   2
    12     11     12   1
    13     12     13   2
    14     13      8   1
    15     14     15   1
    16      1     14   1
    17     16     17   1
    18     11     16   1
    19     18     19   2
    20     19     20   1
    21     20     21   2
    22     21     22   1
    23     22     23   2
    24     23     18   1
    25     22     24   1
    26     24     25   2
    27     25     26   1
    28     26     27   2
    29     27     23   1
    30     25     28   1
    31     28     29   2
    32     29     30   1
    33     30     31   2
    34     31     26   1
    35      7     27   1
    36      2     32   1
    37      3     33   1
    38      5     34   1
    39      6     35   1
    40      9     36   1
    41     10     37   1
    42     12     38   1
    43     13     39   1
    44     15     40   1
    45     15     41   1
    46     15     42   1
    47     17     43   1
    48     17     44   1
    49     17     45   1
    50     18     46   1
    51     19     47   1
    52     20     48   1
    53     21     49   1
    54     28     50   1
    55     29     51   1
    56     30     52   1
    57     31     53   1
    58     54     55   2
    59     55     56   1
    60     56     57   2
    61     57     58   1
    62     58     59   2
    63     59     54   1
    64     56     60   1
    65     57     61   1
    66     59     62   1
    67     24     54   1
