# Produced with molli package
@<TRIPOS>MOLECULE
B_3_M
65 70 0 0 0
SMALL
USER_CHARGES

@<TRIPOS>ATOM
     1 C      -5.933776     4.319305     0.341802 C          1 UNL1 0.000
     2 C      -6.549772     3.182537    -0.172426 C          1 UNL1 0.000
     3 C      -5.882029     1.946788    -0.150513 C          1 UNL1 0.000
     4 C      -4.608238     1.806218     0.427243 C          1 UNL1 0.000
     5 C      -3.995944     2.985901     0.898623 C          1 UNL1 0.000
     6 C      -4.654119     4.219982     0.871716 C          1 UNL1 0.000
     7 N      -3.925986     0.527238     0.514010 N          1 UNL1 0.000
     8 C      -4.587703    -0.765331     0.583901 C          1 UNL1 0.000
     9 C      -5.906054    -0.922691     1.049400 C          1 UNL1 0.000
    10 C      -6.534348    -2.179647     1.078490 C          1 UNL1 0.000
    11 C      -5.835073    -3.317683     0.688780 C          1 UNL1 0.000
    12 C      -4.523025    -3.197973     0.253436 C          1 UNL1 0.000
    13 C      -3.905632    -1.944512     0.216389 C          1 UNL1 0.000
    14 O      -6.533730     5.542739     0.443225 O          1 UNL1 0.000
    15 C      -7.197251     5.968288    -0.742004 C          1 UNL1 0.000
    16 O      -6.359481    -4.578523     0.660191 O          1 UNL1 0.000
    17 C      -7.129802    -4.912145     1.810161 C          1 UNL1 0.000
    18 C      -2.441791     0.519260     3.014359 C          1 UNL1 0.000
    19 C      -1.763157     0.546214     4.230826 C          1 UNL1 0.000
    20 C      -0.381746     0.577289     4.235065 C          1 UNL1 0.000
    21 C       0.308357     0.577718     3.022887 C          1 UNL1 0.000
    22 C      -0.352946     0.556369     1.765633 C          1 UNL1 0.000
    23 C      -1.766236     0.531317     1.766616 C          1 UNL1 0.000
    24 C       0.351913     0.562929     0.518603 C          1 UNL1 0.000
    25 C      -0.351329     0.557091    -0.728668 C          1 UNL1 0.000
    26 C      -1.764845     0.556892    -0.730058 C          1 UNL1 0.000
    27 C      -2.460595     0.542507     0.517890 C          1 UNL1 0.000
    28 C       0.310445     0.541589    -1.985493 C          1 UNL1 0.000
    29 C      -0.380074     0.515391    -3.197494 C          1 UNL1 0.000
    30 C      -1.761851     0.512573    -3.193433 C          1 UNL1 0.000
    31 C      -2.440486     0.538535    -1.977397 C          1 UNL1 0.000
    32 H      -7.559144     3.221619    -0.568552 H          1 UNL1 0.000
    33 H      -6.383042     1.094662    -0.601609 H          1 UNL1 0.000
    34 H      -2.997501     2.969992     1.325965 H          1 UNL1 0.000
    35 H      -4.161447     5.102232     1.271823 H          1 UNL1 0.000
    36 H      -6.472558    -0.071038     1.415383 H          1 UNL1 0.000
    37 H      -7.570198    -2.243503     1.397220 H          1 UNL1 0.000
    38 H      -3.968605    -4.082072    -0.049720 H          1 UNL1 0.000
    39 H      -2.874042    -1.917619    -0.122486 H          1 UNL1 0.000
    40 H      -6.501272     6.000016    -1.586886 H          1 UNL1 0.000
    41 H      -7.562851     6.985262    -0.567784 H          1 UNL1 0.000
    42 H      -8.064796     5.343897    -0.972990 H          1 UNL1 0.000
    43 H      -7.112152    -6.001609     1.913816 H          1 UNL1 0.000
    44 H      -8.169310    -4.599480     1.675290 H          1 UNL1 0.000
    45 H      -6.710698    -4.485179     2.728357 H          1 UNL1 0.000
    46 H      -3.529945     0.501630     3.047620 H          1 UNL1 0.000
    47 H      -2.317675     0.546687     5.165080 H          1 UNL1 0.000
    48 H       0.164638     0.601518     5.173968 H          1 UNL1 0.000
    49 H       1.395350     0.601072     3.076343 H          1 UNL1 0.000
    50 H       1.397661     0.541806    -2.038336 H          1 UNL1 0.000
    51 H       0.165962     0.494358    -4.136607 H          1 UNL1 0.000
    52 H      -2.316945     0.485909    -4.126948 H          1 UNL1 0.000
    53 H      -3.528566     0.526876    -2.011178 H          1 UNL1 0.000
    54 C       1.833917     0.564882     0.522088 C          1 UNL1 0.000
    55 C       2.549352     1.773006     0.540021 C          1 UNL1 0.000
    56 C       3.947113     1.773274     0.561621 C          1 UNL1 0.000
    57 C       4.648818     0.563767     0.563168 C          1 UNL1 0.000
    58 C       3.946955    -0.645183     0.539236 C          1 UNL1 0.000
    59 C       2.549434    -0.643654     0.519283 C          1 UNL1 0.000
    60 C       6.081841     0.562852     0.593473 C          1 UNL1 0.000
    61 N       7.242591     0.561557     0.620276 N          1 UNL1 0.000
    62 H       2.013915     2.721290     0.542753 H          1 UNL1 0.000
    63 H       4.479843     2.722331     0.580362 H          1 UNL1 0.000
    64 H       4.479084    -1.594750     0.539343 H          1 UNL1 0.000
    65 H       2.013650    -1.591701     0.505203 H          1 UNL1 0.000
@<TRIPOS>BOND
     1      1      2   2
     2      2      3   1
     3      3      4   2
     4      4      5   1
     5      5      6   2
     6      6      1   1
     7      4      7   1
     8      7      8   1
     9      8      9   2
    10      9     10   1
    11     10     11   2
    12     11     12   1
    13     12     13   2
    14     13      8   1
    15     14     15   1
    16      1     14   1
    17     16     17   1
    18     11     16   1
    19     18     19   2
    20     19     20   1
    21     20     21   2
    22     21     22   1
    23     22     23   2
    24     23     18   1
    25     22     24   1
    26     24     25   2
    27     25     26   1
    28     26     27   2
    29     27     23   1
    30     25     28   1
    31     28     29   2
    32     29     30   1
    33     30     31   2
    34     31     26   1
    35      7     27   1
    36      2     32   1
    37      3     33   1
    38      5     34   1
    39      6     35   1
    40      9     36   1
    41     10     37   1
    42     12     38   1
    43     13     39   1
    44     15     40   1
    45     15     41   1
    46     15     42   1
    47     17     43   1
    48     17     44   1
    49     17     45   1
    50     18     46   1
    51     19     47   1
    52     20     48   1
    53     21     49   1
    54     28     50   1
    55     29     51   1
    56     30     52   1
    57     31     53   1
    58     54     55   2
    59     55     56   1
    60     56     57   2
    61     57     58   1
    62     58     59   2
    63     59     54   1
    64     60     61   3
    65     57     60   1
    66     55     62   1
    67     56     63   1
    68     58     64   1
    69     59     65   1
    70     24     54   1
