# Produced with molli package
@<TRIPOS>MOLECULE
B_3_S
69 74 0 0 0
SMALL
USER_CHARGES

@<TRIPOS>ATOM
     1 C      -5.843811     4.366554     0.391907 C          1 UNL1 0.000
     2 C      -6.548374     3.218823     0.043557 C          1 UNL1 0.000
     3 C      -5.909085     1.968374     0.046652 C          1 UNL1 0.000
     4 C      -4.574203     1.824510     0.460314 C          1 UNL1 0.000
     5 C      -3.885782     3.016448     0.785487 C          1 UNL1 0.000
     6 C      -4.511157     4.268271     0.760947 C          1 UNL1 0.000
     7 N      -3.897355     0.538829     0.518410 N          1 UNL1 0.000
     8 C      -4.541922    -0.760253     0.622956 C          1 UNL1 0.000
     9 C      -5.819241    -0.944004     1.176735 C          1 UNL1 0.000
    10 C      -6.413109    -2.217424     1.264777 C          1 UNL1 0.000
    11 C      -5.719729    -3.349871     0.846704 C          1 UNL1 0.000
    12 C      -4.442962    -3.198445     0.321434 C          1 UNL1 0.000
    13 C      -3.864256    -1.929833     0.216586 C          1 UNL1 0.000
    14 O      -6.437557     5.593649     0.486109 O          1 UNL1 0.000
    15 C      -6.944654     6.052703    -0.764630 C          1 UNL1 0.000
    16 O      -6.169869    -4.638497     0.892168 O          1 UNL1 0.000
    17 C      -7.275947    -4.893557     1.747318 C          1 UNL1 0.000
    18 C      -2.349743     0.461146     2.976624 C          1 UNL1 0.000
    19 C      -1.639717     0.434174     4.174900 C          1 UNL1 0.000
    20 C      -0.258342     0.441520     4.143248 C          1 UNL1 0.000
    21 C       0.399957     0.475341     2.913688 C          1 UNL1 0.000
    22 C      -0.294196     0.504674     1.674258 C          1 UNL1 0.000
    23 C      -1.706329     0.497620     1.712398 C          1 UNL1 0.000
    24 C       0.375923     0.545796     0.408621 C          1 UNL1 0.000
    25 C      -0.359901     0.587408    -0.819844 C          1 UNL1 0.000
    26 C      -1.771777     0.598738    -0.783339 C          1 UNL1 0.000
    27 C      -2.431745     0.549450     0.482277 C          1 UNL1 0.000
    28 C       0.266524     0.609219    -2.094604 C          1 UNL1 0.000
    29 C      -0.457432     0.634648    -3.287168 C          1 UNL1 0.000
    30 C      -1.838558     0.644499    -3.245091 C          1 UNL1 0.000
    31 C      -2.482771     0.629653    -2.010646 C          1 UNL1 0.000
    32 H      -7.601431     3.276288    -0.214260 H          1 UNL1 0.000
    33 H      -6.485125     1.113505    -0.293078 H          1 UNL1 0.000
    34 H      -2.841230     2.998573     1.085306 H          1 UNL1 0.000
    35 H      -3.952114     5.157905     1.037633 H          1 UNL1 0.000
    36 H      -6.376365    -0.105456     1.583828 H          1 UNL1 0.000
    37 H      -7.417662    -2.287219     1.669206 H          1 UNL1 0.000
    38 H      -3.881157    -4.071909    -0.000273 H          1 UNL1 0.000
    39 H      -2.860242    -1.885463    -0.196047 H          1 UNL1 0.000
    40 H      -6.122865     6.253785    -1.459967 H          1 UNL1 0.000
    41 H      -7.473035     6.993779    -0.582366 H          1 UNL1 0.000
    42 H      -7.659470     5.353511    -1.208840 H          1 UNL1 0.000
    43 H      -7.377030    -5.979059     1.844306 H          1 UNL1 0.000
    44 H      -8.201263    -4.506902     1.309650 H          1 UNL1 0.000
    45 H      -7.111524    -4.485816     2.750432 H          1 UNL1 0.000
    46 H      -3.436632     0.463571     3.038661 H          1 UNL1 0.000
    47 H      -2.170044     0.411887     5.122833 H          1 UNL1 0.000
    48 H       0.312388     0.424258     5.067652 H          1 UNL1 0.000
    49 H       1.488223     0.484450     2.938353 H          1 UNL1 0.000
    50 H       1.351917     0.600864    -2.177360 H          1 UNL1 0.000
    51 H       0.062628     0.644719    -4.241031 H          1 UNL1 0.000
    52 H      -2.419457     0.660012    -4.162952 H          1 UNL1 0.000
    53 H      -3.571518     0.629415    -2.013516 H          1 UNL1 0.000
    54 C       1.856222     0.544412     0.370289 C          1 UNL1 0.000
    55 C       2.571825     1.748454     0.355027 C          1 UNL1 0.000
    56 C       3.969166     1.743333     0.325273 C          1 UNL1 0.000
    57 C       4.684132     0.535814     0.311213 C          1 UNL1 0.000
    58 C       3.972813    -0.668406     0.317840 C          1 UNL1 0.000
    59 C       2.572296    -0.661750     0.349579 C          1 UNL1 0.000
    60 C       6.178782     0.617548     0.285390 C          1 UNL1 0.000
    61 C       7.031474    -0.622319     0.385276 C          1 UNL1 0.000
    62 O       6.716907     1.719302     0.184635 O          1 UNL1 0.000
    63 H       2.042014     2.699446     0.366803 H          1 UNL1 0.000
    64 H       4.497686     2.695637     0.314293 H          1 UNL1 0.000
    65 H       4.464273    -1.634380     0.293782 H          1 UNL1 0.000
    66 H       2.034472    -1.608986     0.358409 H          1 UNL1 0.000
    67 H       7.616539    -0.720514    -0.533533 H          1 UNL1 0.000
    68 H       6.471169    -1.542450     0.533842 H          1 UNL1 0.000
    69 H       7.706907    -0.509975     1.238744 H          1 UNL1 0.000
@<TRIPOS>BOND
     1      1      2   2
     2      2      3   1
     3      3      4   2
     4      4      5   1
     5      5      6   2
     6      6      1   1
     7      4      7   1
     8      7      8   1
     9      8      9   2
    10      9     10   1
    11     10     11   2
    12     11     12   1
    13     12     13   2
    14     13      8   1
    15     14     15   1
    16      1     14   1
    17     16     17   1
    18     11     16   1
    19     18     19   2
    20     19     20   1
    21     20     21   2
    22     21     22   1
    23     22     23   2
    24     23     18   1
    25     22     24   1
    26     24     25   2
    27     25     26   1
    28     26     27   2
    29     27     23   1
    30     25     28   1
    31     28     29   2
    32     29     30   1
    33     30     31   2
    34     31     26   1
    35      7     27   1
    36      2     32   1
    37      3     33   1
    38      5     34   1
    39      6     35   1
    40      9     36   1
    41     10     37   1
    42     12     38   1
    43     13     39   1
    44     15     40   1
    45     15     41   1
    46     15     42   1
    47     17     43   1
    48     17     44   1
    49     17     45   1
    50     18     46   1
    51     19     47   1
    52     20     48   1
    53     21     49   1
    54     28     50   1
    55     29     51   1
    56     30     52   1
    57     31     53   1
    58     54     55   2
    59     55     56   1
    60     56     57   2
    61     57     58   1
    62     58     59   2
    63     59     54   1
    64     57     60   1
    65     60     61   1
    66     60     62   2
    67     55     63   1
    68     56     64   1
    69     58     65   1
    70     59     66   1
    71     61     67   1
    72     61     68   1
    73     61     69   1
    74     24     54   1
