# Produced with molli package
@<TRIPOS>MOLECULE
B_3_N
61 66 0 0 0
SMALL
USER_CHARGES

@<TRIPOS>ATOM
     1 C      -6.021554     4.257012     0.478277 C          1 UNL1 0.000
     2 C      -6.624361     3.125066    -0.062268 C          1 UNL1 0.000
     3 C      -5.939195     1.900434    -0.071560 C          1 UNL1 0.000
     4 C      -4.657190     1.770954     0.491854 C          1 UNL1 0.000
     5 C      -4.065851     2.943186     1.006286 C          1 UNL1 0.000
     6 C      -4.744869     4.165821     1.016121 C          1 UNL1 0.000
     7 N      -3.949821     0.505512     0.516971 N          1 UNL1 0.000
     8 C      -4.591581    -0.794915     0.573245 C          1 UNL1 0.000
     9 C      -5.860394    -0.985544     1.148036 C          1 UNL1 0.000
    10 C      -6.453326    -2.257538     1.218897 C          1 UNL1 0.000
    11 C      -5.772445    -3.376003     0.745575 C          1 UNL1 0.000
    12 C      -4.517240    -3.213321     0.172192 C          1 UNL1 0.000
    13 C      -3.931479    -1.946129     0.098677 C          1 UNL1 0.000
    14 O      -6.652789     5.464049     0.591803 O          1 UNL1 0.000
    15 C      -7.148643     5.952562    -0.651452 C          1 UNL1 0.000
    16 O      -6.237304    -4.660460     0.772339 O          1 UNL1 0.000
    17 C      -7.133004    -4.964497     1.835077 C          1 UNL1 0.000
    18 C      -2.463988     0.390069     3.015969 C          1 UNL1 0.000
    19 C      -1.783659     0.349055     4.231415 C          1 UNL1 0.000
    20 C      -0.402026     0.369991     4.235717 C          1 UNL1 0.000
    21 C       0.286914     0.430015     3.024453 C          1 UNL1 0.000
    22 C      -0.378448     0.480197     1.768780 C          1 UNL1 0.000
    23 C      -1.790422     0.461821     1.768717 C          1 UNL1 0.000
    24 C       0.310185     0.550919     0.518516 C          1 UNL1 0.000
    25 C      -0.381313     0.614008    -0.730633 C          1 UNL1 0.000
    26 C      -1.793306     0.621864    -0.728125 C          1 UNL1 0.000
    27 C      -2.486137     0.538169     0.520291 C          1 UNL1 0.000
    28 C       0.280412     0.658894    -1.988152 C          1 UNL1 0.000
    29 C      -0.412422     0.705169    -3.197967 C          1 UNL1 0.000
    30 C      -1.794285     0.715740    -3.190507 C          1 UNL1 0.000
    31 C      -2.471199     0.678463    -1.973339 C          1 UNL1 0.000
    32 H      -7.633864     3.167441    -0.458480 H          1 UNL1 0.000
    33 H      -6.427136     1.047788    -0.536375 H          1 UNL1 0.000
    34 H      -3.068784     2.926818     1.437312 H          1 UNL1 0.000
    35 H      -4.270799     5.043793     1.446478 H          1 UNL1 0.000
    36 H      -6.404110    -0.149777     1.580282 H          1 UNL1 0.000
    37 H      -7.446522    -2.342731     1.647909 H          1 UNL1 0.000
    38 H      -3.976859    -4.077809    -0.205098 H          1 UNL1 0.000
    39 H      -2.942180    -1.884744    -0.345742 H          1 UNL1 0.000
    40 H      -6.348480     6.011206    -1.397321 H          1 UNL1 0.000
    41 H      -7.526241     6.965806    -0.481742 H          1 UNL1 0.000
    42 H      -7.981209     5.347206    -1.021540 H          1 UNL1 0.000
    43 H      -7.158605    -6.053018     1.945955 H          1 UNL1 0.000
    44 H      -8.144485    -4.624894     1.593255 H          1 UNL1 0.000
    45 H      -6.794263    -4.543509     2.788298 H          1 UNL1 0.000
    46 H      -3.551898     0.378610     3.051062 H          1 UNL1 0.000
    47 H      -2.337560     0.304432     5.165018 H          1 UNL1 0.000
    48 H       0.145499     0.340896     5.173783 H          1 UNL1 0.000
    49 H       1.374339     0.443357     3.074790 H          1 UNL1 0.000
    50 H       1.367742     0.650592    -2.041051 H          1 UNL1 0.000
    51 H       0.132315     0.730220    -4.137736 H          1 UNL1 0.000
    52 H      -2.350970     0.747314    -4.122947 H          1 UNL1 0.000
    53 H      -3.559263     0.678124    -2.005196 H          1 UNL1 0.000
    54 C       1.776806     0.538320     0.516529 C          1 UNL1 0.000
    55 C       2.505800     1.709973     0.578430 C          1 UNL1 0.000
    56 S       4.192968     1.419824     0.564392 S          1 UNL1 0.000
    57 C       3.959561    -0.272942     0.474540 C          1 UNL1 0.000
    58 C       2.624575    -0.611727     0.456361 C          1 UNL1 0.000
    59 H       2.132510     2.724145     0.632526 H          1 UNL1 0.000
    60 H       4.811722    -0.937714     0.439839 H          1 UNL1 0.000
    61 H       2.269242    -1.633982     0.402602 H          1 UNL1 0.000
@<TRIPOS>BOND
     1      1      2   2
     2      2      3   1
     3      3      4   2
     4      4      5   1
     5      5      6   2
     6      6      1   1
     7      4      7   1
     8      7      8   1
     9      8      9   2
    10      9     10   1
    11     10     11   2
    12     11     12   1
    13     12     13   2
    14     13      8   1
    15     14     15   1
    16      1     14   1
    17     16     17   1
    18     11     16   1
    19     18     19   2
    20     19     20   1
    21     20     21   2
    22     21     22   1
    23     22     23   2
    24     23     18   1
    25     22     24   1
    26     24     25   2
    27     25     26   1
    28     26     27   2
    29     27     23   1
    30     25     28   1
    31     28     29   2
    32     29     30   1
    33     30     31   2
    34     31     26   1
    35      7     27   1
    36      2     32   1
    37      3     33   1
    38      5     34   1
    39      6     35   1
    40      9     36   1
    41     10     37   1
    42     12     38   1
    43     13     39   1
    44     15     40   1
    45     15     41   1
    46     15     42   1
    47     17     43   1
    48     17     44   1
    49     17     45   1
    50     18     46   1
    51     19     47   1
    52     20     48   1
    53     21     49   1
    54     28     50   1
    55     29     51   1
    56     30     52   1
    57     31     53   1
    58     54     55   2
    59     55     56   1
    60     56     57   1
    61     57     58   2
    62     58     54   1
    63     55     59   1
    64     57     60   1
    65     58     61   1
    66     24     54   1
