# Produced with molli package
@<TRIPOS>MOLECULE
B_3_T
67 72 0 0 0
SMALL
USER_CHARGES

@<TRIPOS>ATOM
     1 C      -5.903664     4.348063     0.345616 C          1 UNL1 0.000
     2 C      -6.542081     3.216188    -0.152080 C          1 UNL1 0.000
     3 C      -5.898218     1.968279    -0.115398 C          1 UNL1 0.000
     4 C      -4.622822     1.812036     0.454935 C          1 UNL1 0.000
     5 C      -3.989051     2.983664     0.916115 C          1 UNL1 0.000
     6 C      -4.625264     4.229207     0.876555 C          1 UNL1 0.000
     7 N      -3.959811     0.523399     0.538628 N          1 UNL1 0.000
     8 C      -4.646198    -0.755751     0.593352 C          1 UNL1 0.000
     9 C      -5.947285    -0.894446     1.113437 C          1 UNL1 0.000
    10 C      -6.610440    -2.131943     1.113359 C          1 UNL1 0.000
    11 C      -5.961285    -3.263777     0.631748 C          1 UNL1 0.000
    12 C      -4.664429    -3.169534     0.150093 C          1 UNL1 0.000
    13 C      -4.011046    -1.934573     0.147811 C          1 UNL1 0.000
    14 O      -6.473417     5.587214     0.430062 O          1 UNL1 0.000
    15 C      -7.188395     5.993141    -0.731682 C          1 UNL1 0.000
    16 O      -6.574449    -4.480130     0.541827 O          1 UNL1 0.000
    17 C      -6.897525    -5.018645     1.821518 C          1 UNL1 0.000
    18 C      -2.467172     0.445185     3.029050 C          1 UNL1 0.000
    19 C      -1.782924     0.436391     4.242816 C          1 UNL1 0.000
    20 C      -0.401183     0.439803     4.241438 C          1 UNL1 0.000
    21 C       0.284363     0.452575     3.026476 C          1 UNL1 0.000
    22 C      -0.383016     0.470126     1.772451 C          1 UNL1 0.000
    23 C      -1.795882     0.466747     1.778935 C          1 UNL1 0.000
    24 C       0.317202     0.498108     0.523379 C          1 UNL1 0.000
    25 C      -0.391676     0.525933    -0.720744 C          1 UNL1 0.000
    26 C      -1.804100     0.545112    -0.716816 C          1 UNL1 0.000
    27 C      -2.495413     0.512688     0.533878 C          1 UNL1 0.000
    28 C       0.266492     0.529212    -1.979887 C          1 UNL1 0.000
    29 C      -0.427640     0.542032    -3.189980 C          1 UNL1 0.000
    30 C      -1.808986     0.561467    -3.181373 C          1 UNL1 0.000
    31 C      -2.483833     0.567802    -1.962586 C          1 UNL1 0.000
    32 H      -7.550868     3.266387    -0.547865 H          1 UNL1 0.000
    33 H      -6.417594     1.119244    -0.551526 H          1 UNL1 0.000
    34 H      -2.989872     2.952102     1.341470 H          1 UNL1 0.000
    35 H      -4.114964     5.106439     1.265669 H          1 UNL1 0.000
    36 H      -6.468665    -0.039949     1.536432 H          1 UNL1 0.000
    37 H      -7.632112    -2.195861     1.475504 H          1 UNL1 0.000
    38 H      -4.156593    -4.052842    -0.226320 H          1 UNL1 0.000
    39 H      -2.995545    -1.915992    -0.237266 H          1 UNL1 0.000
    40 H      -6.528289     6.013015    -1.605132 H          1 UNL1 0.000
    41 H      -7.548261     7.012216    -0.557539 H          1 UNL1 0.000
    42 H      -8.064909     5.366381    -0.917516 H          1 UNL1 0.000
    43 H      -6.668002    -6.088765     1.797756 H          1 UNL1 0.000
    44 H      -7.969455    -4.900936     2.004129 H          1 UNL1 0.000
    45 H      -6.324764    -4.570434     2.641806 H          1 UNL1 0.000
    46 H      -3.554952     0.449523     3.066496 H          1 UNL1 0.000
    47 H      -2.333626     0.430969     5.179251 H          1 UNL1 0.000
    48 H       0.150070     0.434621     5.177711 H          1 UNL1 0.000
    49 H       1.372169     0.454405     3.073021 H          1 UNL1 0.000
    50 H       1.353781     0.513978    -2.034528 H          1 UNL1 0.000
    51 H       0.116580     0.534953    -4.130282 H          1 UNL1 0.000
    52 H      -2.366971     0.567776    -4.113444 H          1 UNL1 0.000
    53 H      -3.571711     0.575194    -1.993009 H          1 UNL1 0.000
    54 C       1.798677     0.507407     0.517588 C          1 UNL1 0.000
    55 C       2.504412     1.719514     0.558688 C          1 UNL1 0.000
    56 C       3.901342     1.733124     0.551987 C          1 UNL1 0.000
    57 C       4.620620     0.534731     0.496497 C          1 UNL1 0.000
    58 C       3.922263    -0.677912     0.461675 C          1 UNL1 0.000
    59 C       2.525198    -0.691679     0.470881 C          1 UNL1 0.000
    60 C       6.120534     0.536270     0.502603 C          1 UNL1 0.000
    61 H       1.962092     2.662245     0.597911 H          1 UNL1 0.000
    62 H       4.420844     2.687893     0.588983 H          1 UNL1 0.000
    63 H       4.462781    -1.621233     0.426561 H          1 UNL1 0.000
    64 H       2.000450    -1.644478     0.440766 H          1 UNL1 0.000
    65 H       6.504233    -0.073284    -0.322005 H          1 UNL1 0.000
    66 H       6.492371     0.135142     1.450644 H          1 UNL1 0.000
    67 H       6.520474     1.548131     0.379184 H          1 UNL1 0.000
@<TRIPOS>BOND
     1      1      2   2
     2      2      3   1
     3      3      4   2
     4      4      5   1
     5      5      6   2
     6      6      1   1
     7      4      7   1
     8      7      8   1
     9      8      9   2
    10      9     10   1
    11     10     11   2
    12     11     12   1
    13     12     13   2
    14     13      8   1
    15     14     15   1
    16      1     14   1
    17     16     17   1
    18     11     16   1
    19     18     19   2
    20     19     20   1
    21     20     21   2
    22     21     22   1
    23     22     23   2
    24     23     18   1
    25     22     24   1
    26     24     25   2
    27     25     26   1
    28     26     27   2
    29     27     23   1
    30     25     28   1
    31     28     29   2
    32     29     30   1
    33     30     31   2
    34     31     26   1
    35      7     27   1
    36      2     32   1
    37      3     33   1
    38      5     34   1
    39      6     35   1
    40      9     36   1
    41     10     37   1
    42     12     38   1
    43     13     39   1
    44     15     40   1
    45     15     41   1
    46     15     42   1
    47     17     43   1
    48     17     44   1
    49     17     45   1
    50     18     46   1
    51     19     47   1
    52     20     48   1
    53     21     49   1
    54     28     50   1
    55     29     51   1
    56     30     52   1
    57     31     53   1
    58     54     55   2
    59     55     56   1
    60     56     57   2
    61     57     58   1
    62     58     59   2
    63     59     54   1
    64     57     60   1
    65     55     61   1
    66     56     62   1
    67     58     63   1
    68     59     64   1
    69     60     65   1
    70     60     66   1
    71     60     67   1
    72     24     54   1
