# Produced with molli package
@<TRIPOS>MOLECULE
B_3_L
68 74 0 0 0
SMALL
USER_CHARGES

@<TRIPOS>ATOM
     1 C      -5.917330     4.332734     0.315228 C          1 UNL1 0.000
     2 C      -6.544771     3.193715    -0.181298 C          1 UNL1 0.000
     3 C      -5.882931     1.955393    -0.154641 C          1 UNL1 0.000
     4 C      -4.597391     1.818837     0.398159 C          1 UNL1 0.000
     5 C      -3.980790     2.995426     0.869417 C          1 UNL1 0.000
     6 C      -4.636938     4.230278     0.844231 C          1 UNL1 0.000
     7 N      -3.909221     0.543649     0.450235 N          1 UNL1 0.000
     8 C      -4.569894    -0.746127     0.519630 C          1 UNL1 0.000
     9 C      -5.835172    -0.914203     1.109398 C          1 UNL1 0.000
    10 C      -6.448203    -2.176103     1.189398 C          1 UNL1 0.000
    11 C      -5.790572    -3.306120     0.710390 C          1 UNL1 0.000
    12 C      -4.539364    -3.165578     0.122848 C          1 UNL1 0.000
    13 C      -3.933290    -1.908785     0.041485 C          1 UNL1 0.000
    14 O      -6.496430     5.568679     0.385864 O          1 UNL1 0.000
    15 C      -7.210238     5.948417    -0.785880 C          1 UNL1 0.000
    16 O      -6.276878    -4.582305     0.744347 O          1 UNL1 0.000
    17 C      -7.144638    -4.876174     1.832775 C          1 UNL1 0.000
    18 C      -2.432756     0.450921     2.953754 C          1 UNL1 0.000
    19 C      -1.757282     0.426897     4.171966 C          1 UNL1 0.000
    20 C      -0.375331     0.438786     4.179920 C          1 UNL1 0.000
    21 C       0.317326     0.472856     2.969763 C          1 UNL1 0.000
    22 C      -0.340942     0.502047     1.711549 C          1 UNL1 0.000
    23 C      -1.754885     0.493813     1.707932 C          1 UNL1 0.000
    24 C       0.366176     0.543749     0.467634 C          1 UNL1 0.000
    25 C      -0.332811     0.586994    -0.781030 C          1 UNL1 0.000
    26 C      -1.746312     0.609542    -0.786744 C          1 UNL1 0.000
    27 C      -2.444772     0.554507     0.457838 C          1 UNL1 0.000
    28 C       0.332743     0.598420    -2.035505 C          1 UNL1 0.000
    29 C      -0.352766     0.630078    -3.249873 C          1 UNL1 0.000
    30 C      -1.734492     0.660164    -3.250270 C          1 UNL1 0.000
    31 C      -2.416999     0.653678    -2.036122 C          1 UNL1 0.000
    32 H      -7.555364     3.234861    -0.573906 H          1 UNL1 0.000
    33 H      -6.391900     1.098405    -0.587818 H          1 UNL1 0.000
    34 H      -2.978559     2.975718     1.288345 H          1 UNL1 0.000
    35 H      -4.138585     5.112984     1.236306 H          1 UNL1 0.000
    36 H      -6.358824    -0.067683     1.545607 H          1 UNL1 0.000
    37 H      -7.437839    -2.245731     1.629411 H          1 UNL1 0.000
    38 H      -4.017714    -4.039336    -0.259284 H          1 UNL1 0.000
    39 H      -2.947666    -1.864168    -0.413063 H          1 UNL1 0.000
    40 H      -6.580240     5.857717    -1.677377 H          1 UNL1 0.000
    41 H      -7.488348     7.001423    -0.676671 H          1 UNL1 0.000
    42 H      -8.134150     5.373941    -0.898341 H          1 UNL1 0.000
    43 H      -7.146012    -5.961895     1.971032 H          1 UNL1 0.000
    44 H      -8.166408    -4.561729     1.600671 H          1 UNL1 0.000
    45 H      -6.798909    -4.425664     2.769856 H          1 UNL1 0.000
    46 H      -3.520997     0.448843     2.984935 H          1 UNL1 0.000
    47 H      -2.313976     0.402675     5.104382 H          1 UNL1 0.000
    48 H       0.169657     0.422162     5.119552 H          1 UNL1 0.000
    49 H       1.405269     0.480362     3.023657 H          1 UNL1 0.000
    50 H       1.420668     0.572058    -2.083077 H          1 UNL1 0.000
    51 H       0.197619     0.628156    -4.186446 H          1 UNL1 0.000
    52 H      -2.285705     0.681852    -4.185944 H          1 UNL1 0.000
    53 H      -3.505045     0.667218    -2.073050 H          1 UNL1 0.000
    54 C       1.849007     0.545827     0.471757 C          1 UNL1 0.000
    55 C       2.556006     1.757834     0.467492 C          1 UNL1 0.000
    56 C       3.954718     1.793692     0.466789 C          1 UNL1 0.000
    57 C       4.631145     0.569869     0.471753 C          1 UNL1 0.000
    58 C       3.969471    -0.657450     0.477786 C          1 UNL1 0.000
    59 C       2.561171    -0.669230     0.477487 C          1 UNL1 0.000
    60 N       5.981583     0.301078     0.471587 N          1 UNL1 0.000
    61 C       6.195070    -1.051894     0.478493 C          1 UNL1 0.000
    62 C       4.966373    -1.671587     0.482792 C          1 UNL1 0.000
    63 H       2.007194     2.698690     0.462867 H          1 UNL1 0.000
    64 H       4.485950     2.739624     0.461928 H          1 UNL1 0.000
    65 H       2.027661    -1.616316     0.481550 H          1 UNL1 0.000
    66 H       6.705610     1.005993     0.466943 H          1 UNL1 0.000
    67 H       7.198592    -1.455352     0.479637 H          1 UNL1 0.000
    68 H       4.798370    -2.740552     0.488531 H          1 UNL1 0.000
@<TRIPOS>BOND
     1      1      2   2
     2      2      3   1
     3      3      4   2
     4      4      5   1
     5      5      6   2
     6      6      1   1
     7      4      7   1
     8      7      8   1
     9      8      9   2
    10      9     10   1
    11     10     11   2
    12     11     12   1
    13     12     13   2
    14     13      8   1
    15     14     15   1
    16      1     14   1
    17     16     17   1
    18     11     16   1
    19     18     19   2
    20     19     20   1
    21     20     21   2
    22     21     22   1
    23     22     23   2
    24     23     18   1
    25     22     24   1
    26     24     25   2
    27     25     26   1
    28     26     27   2
    29     27     23   1
    30     25     28   1
    31     28     29   2
    32     29     30   1
    33     30     31   2
    34     31     26   1
    35      7     27   1
    36      2     32   1
    37      3     33   1
    38      5     34   1
    39      6     35   1
    40      9     36   1
    41     10     37   1
    42     12     38   1
    43     13     39   1
    44     15     40   1
    45     15     41   1
    46     15     42   1
    47     17     43   1
    48     17     44   1
    49     17     45   1
    50     18     46   1
    51     19     47   1
    52     20     48   1
    53     21     49   1
    54     28     50   1
    55     29     51   1
    56     30     52   1
    57     31     53   1
    58     54     55   2
    59     55     56   1
    60     56     57   2
    61     57     58   1
    62     58     59   2
    63     59     54   1
    64     57     60   1
    65     60     61   1
    66     61     62   2
    67     62     58   1
    68     55     63   1
    69     56     64   1
    70     59     65   1
    71     60     66   1
    72     61     67   1
    73     62     68   1
    74     24     54   1
