# Produced with molli package
@<TRIPOS>MOLECULE
B_3_O
63 68 0 0 0
SMALL
USER_CHARGES

@<TRIPOS>ATOM
     1 C      -6.012692     4.274204     0.571759 C          1 UNL1 0.000
     2 C      -6.621315     3.151237     1.119503 C          1 UNL1 0.000
     3 C      -5.951827     1.919073     1.121816 C          1 UNL1 0.000
     4 C      -4.669304     1.779207     0.562497 C          1 UNL1 0.000
     5 C      -4.053414     2.957409     0.086809 C          1 UNL1 0.000
     6 C      -4.712272     4.191207     0.093369 C          1 UNL1 0.000
     7 N      -3.971819     0.506451     0.519891 N          1 UNL1 0.000
     8 C      -4.615709    -0.795804     0.469945 C          1 UNL1 0.000
     9 C      -5.925446    -0.977544    -0.011770 C          1 UNL1 0.000
    10 C      -6.534755    -2.241067    -0.022423 C          1 UNL1 0.000
    11 C      -5.828036    -3.351558     0.421741 C          1 UNL1 0.000
    12 C      -4.508941    -3.225354     0.828168 C          1 UNL1 0.000
    13 C      -3.915931    -1.960874     0.858509 C          1 UNL1 0.000
    14 O      -6.695531     5.458395     0.602126 O          1 UNL1 0.000
    15 C      -6.943589     5.948671    -0.716397 C          1 UNL1 0.000
    16 O      -6.392444    -4.594907     0.397128 O          1 UNL1 0.000
    17 C      -7.142986    -4.821220     1.591113 C          1 UNL1 0.000
    18 C      -2.518121     0.614147     3.029672 C          1 UNL1 0.000
    19 C      -1.853812     0.622314     4.253913 C          1 UNL1 0.000
    20 C      -0.471785     0.621045     4.273922 C          1 UNL1 0.000
    21 C       0.232143     0.610724     3.069653 C          1 UNL1 0.000
    22 C      -0.414697     0.586525     1.805449 C          1 UNL1 0.000
    23 C      -1.828428     0.590786     1.790230 C          1 UNL1 0.000
    24 C       0.301970     0.548059     0.567181 C          1 UNL1 0.000
    25 C      -0.385842     0.516427    -0.687549 C          1 UNL1 0.000
    26 C      -1.799147     0.491125    -0.705196 C          1 UNL1 0.000
    27 C      -2.507277     0.537382     0.534371 C          1 UNL1 0.000
    28 C       0.290298     0.510589    -1.936419 C          1 UNL1 0.000
    29 C      -0.384857     0.470241    -3.156337 C          1 UNL1 0.000
    30 C      -1.766491     0.431426    -3.168140 C          1 UNL1 0.000
    31 C      -2.459371     0.440668    -1.959851 C          1 UNL1 0.000
    32 H      -7.617032     3.230214     1.546516 H          1 UNL1 0.000
    33 H      -6.447106     1.075753     1.594267 H          1 UNL1 0.000
    34 H      -3.041098     2.941893    -0.308271 H          1 UNL1 0.000
    35 H      -4.192620     5.074689    -0.265086 H          1 UNL1 0.000
    36 H      -6.491644    -0.142971    -0.414943 H          1 UNL1 0.000
    37 H      -7.549880    -2.352683    -0.391449 H          1 UNL1 0.000
    38 H      -3.940104    -4.100556     1.127393 H          1 UNL1 0.000
    39 H      -2.886150    -1.910975     1.200853 H          1 UNL1 0.000
    40 H      -6.017068     6.161186    -1.259979 H          1 UNL1 0.000
    41 H      -7.497123     6.888175    -0.625915 H          1 UNL1 0.000
    42 H      -7.563116     5.242568    -1.280539 H          1 UNL1 0.000
    43 H      -7.132067    -5.896159     1.796064 H          1 UNL1 0.000
    44 H      -8.180528    -4.509735     1.436413 H          1 UNL1 0.000
    45 H      -6.725032    -4.308735     2.466448 H          1 UNL1 0.000
    46 H      -3.606701     0.614584     3.050649 H          1 UNL1 0.000
    47 H      -2.419241     0.632104     5.181331 H          1 UNL1 0.000
    48 H       0.064012     0.633223     5.218827 H          1 UNL1 0.000
    49 H       1.319504     0.627362     3.132481 H          1 UNL1 0.000
    50 H       1.378117     0.555346    -1.974394 H          1 UNL1 0.000
    51 H       0.172920     0.474452    -4.088506 H          1 UNL1 0.000
    52 H      -2.309658     0.402275    -4.108355 H          1 UNL1 0.000
    53 H      -3.547193     0.420429    -2.005391 H          1 UNL1 0.000
    54 C       1.777981     0.511675     0.584120 C          1 UNL1 0.000
    55 N       2.400136     1.715883     0.554913 N          1 UNL1 0.000
    56 C       3.750316     1.715718     0.565926 C          1 UNL1 0.000
    57 C       4.520715     0.565834     0.604757 C          1 UNL1 0.000
    58 C       3.869484    -0.661426     0.634434 C          1 UNL1 0.000
    59 C       2.477973    -0.693835     0.623802 C          1 UNL1 0.000
    60 H       4.211289     2.699015     0.541414 H          1 UNL1 0.000
    61 H       5.603211     0.626225     0.611388 H          1 UNL1 0.000
    62 H       4.438796    -1.585906     0.664969 H          1 UNL1 0.000
    63 H       1.947502    -1.640540     0.645307 H          1 UNL1 0.000
@<TRIPOS>BOND
     1      1      2   2
     2      2      3   1
     3      3      4   2
     4      4      5   1
     5      5      6   2
     6      6      1   1
     7      4      7   1
     8      7      8   1
     9      8      9   2
    10      9     10   1
    11     10     11   2
    12     11     12   1
    13     12     13   2
    14     13      8   1
    15     14     15   1
    16      1     14   1
    17     16     17   1
    18     11     16   1
    19     18     19   2
    20     19     20   1
    21     20     21   2
    22     21     22   1
    23     22     23   2
    24     23     18   1
    25     22     24   1
    26     24     25   2
    27     25     26   1
    28     26     27   2
    29     27     23   1
    30     25     28   1
    31     28     29   2
    32     29     30   1
    33     30     31   2
    34     31     26   1
    35      7     27   1
    36      2     32   1
    37      3     33   1
    38      5     34   1
    39      6     35   1
    40      9     36   1
    41     10     37   1
    42     12     38   1
    43     13     39   1
    44     15     40   1
    45     15     41   1
    46     15     42   1
    47     17     43   1
    48     17     44   1
    49     17     45   1
    50     18     46   1
    51     19     47   1
    52     20     48   1
    53     21     49   1
    54     28     50   1
    55     29     51   1
    56     30     52   1
    57     31     53   1
    58     54     55   2
    59     55     56   1
    60     56     57   2
    61     57     58   1
    62     58     59   2
    63     59     54   1
    64     56     60   1
    65     57     61   1
    66     58     62   1
    67     59     63   1
    68     24     54   1
