# Produced with molli package
@<TRIPOS>MOLECULE
B_3_R
65 70 0 0 0
SMALL
USER_CHARGES

@<TRIPOS>ATOM
     1 C      -5.813202     4.313468     0.323409 C          1 UNL1 0.000
     2 C      -6.505139     3.173430    -0.075134 C          1 UNL1 0.000
     3 C      -5.870195     1.919722    -0.058836 C          1 UNL1 0.000
     4 C      -4.549404     1.770600     0.397420 C          1 UNL1 0.000
     5 C      -3.874225     2.954414     0.772211 C          1 UNL1 0.000
     6 C      -4.498875     4.204771     0.750474 C          1 UNL1 0.000
     7 N      -3.873700     0.485418     0.446393 N          1 UNL1 0.000
     8 C      -4.524009    -0.809829     0.534599 C          1 UNL1 0.000
     9 C      -5.784020    -0.993558     1.126700 C          1 UNL1 0.000
    10 C      -6.374169    -2.267641     1.227454 C          1 UNL1 0.000
    11 C      -5.700535    -3.396168     0.766613 C          1 UNL1 0.000
    12 C      -4.446737    -3.240498     0.188776 C          1 UNL1 0.000
    13 C      -3.866900    -1.973075     0.081998 C          1 UNL1 0.000
    14 O      -6.383732     5.553301     0.392810 O          1 UNL1 0.000
    15 C      -6.925721     5.978932    -0.854348 C          1 UNL1 0.000
    16 O      -6.149582    -4.685241     0.813191 O          1 UNL1 0.000
    17 C      -7.230537    -4.950463     1.696592 C          1 UNL1 0.000
    18 C      -2.425800     0.457675     2.963103 C          1 UNL1 0.000
    19 C      -1.765536     0.483778     4.189140 C          1 UNL1 0.000
    20 C      -0.384868     0.522249     4.212485 C          1 UNL1 0.000
    21 C       0.322124     0.522749     3.009751 C          1 UNL1 0.000
    22 C      -0.320892     0.486534     1.742468 C          1 UNL1 0.000
    23 C      -1.732592     0.468914     1.724621 C          1 UNL1 0.000
    24 C       0.398155     0.477933     0.503180 C          1 UNL1 0.000
    25 C      -0.287813     0.507880    -0.753908 C          1 UNL1 0.000
    26 C      -1.699933     0.528087    -0.773052 C          1 UNL1 0.000
    27 C      -2.408879     0.492979     0.465847 C          1 UNL1 0.000
    28 C       0.387630     0.507637    -2.003748 C          1 UNL1 0.000
    29 C      -0.289299     0.519955    -3.223981 C          1 UNL1 0.000
    30 C      -1.670950     0.541330    -3.236008 C          1 UNL1 0.000
    31 C      -2.362689     0.550523    -2.027465 C          1 UNL1 0.000
    32 H      -7.543818     3.237207    -0.383960 H          1 UNL1 0.000
    33 H      -6.432421     1.065763    -0.424884 H          1 UNL1 0.000
    34 H      -2.840942     2.932971     1.108089 H          1 UNL1 0.000
    35 H      -3.950433     5.088544     1.064963 H          1 UNL1 0.000
    36 H      -6.322761    -0.153684     1.556414 H          1 UNL1 0.000
    37 H      -7.359490    -2.341255     1.675904 H          1 UNL1 0.000
    38 H      -3.903393    -4.110641    -0.171452 H          1 UNL1 0.000
    39 H      -2.880791    -1.923015    -0.370427 H          1 UNL1 0.000
    40 H      -6.191234     5.881814    -1.661635 H          1 UNL1 0.000
    41 H      -7.182518     7.038726    -0.759484 H          1 UNL1 0.000
    42 H      -7.842816     5.433625    -1.095527 H          1 UNL1 0.000
    43 H      -7.354267    -6.036570     1.752721 H          1 UNL1 0.000
    44 H      -8.162296    -4.526308     1.310507 H          1 UNL1 0.000
    45 H      -7.018488    -4.587965     2.708042 H          1 UNL1 0.000
    46 H      -3.514220     0.446651     2.982030 H          1 UNL1 0.000
    47 H      -2.334281     0.487685     5.114816 H          1 UNL1 0.000
    48 H       0.146962     0.560008     5.159214 H          1 UNL1 0.000
    49 H       1.407064     0.575558     3.079113 H          1 UNL1 0.000
    50 H       1.475448     0.507425    -2.043627 H          1 UNL1 0.000
    51 H       0.267410     0.518279    -4.157005 H          1 UNL1 0.000
    52 H      -2.215359     0.551495    -4.176101 H          1 UNL1 0.000
    53 H      -3.450571     0.563305    -2.072157 H          1 UNL1 0.000
    54 C       1.871922     0.402788     0.524568 C          1 UNL1 0.000
    55 N       2.531978     1.575184     0.337507 N          1 UNL1 0.000
    56 C       3.887011     1.545862     0.365514 C          1 UNL1 0.000
    57 C       4.610065     0.384716     0.583387 C          1 UNL1 0.000
    58 C       3.930220    -0.817959     0.773737 C          1 UNL1 0.000
    59 C       2.536891    -0.807890     0.737049 C          1 UNL1 0.000
    60 N       6.060395     0.437601     0.617042 N          1 UNL1 0.000
    61 O       6.613603     1.401028     0.074277 O          1 UNL1 0.000
    62 O       6.651576    -0.490892     1.189003 O          1 UNL1 0.000
    63 H       4.362565     2.511143     0.210981 H          1 UNL1 0.000
    64 H       4.460310    -1.751325     0.947372 H          1 UNL1 0.000
    65 H       1.974723    -1.726615     0.881873 H          1 UNL1 0.000
@<TRIPOS>BOND
     1      1      2   2
     2      2      3   1
     3      3      4   2
     4      4      5   1
     5      5      6   2
     6      6      1   1
     7      4      7   1
     8      7      8   1
     9      8      9   2
    10      9     10   1
    11     10     11   2
    12     11     12   1
    13     12     13   2
    14     13      8   1
    15     14     15   1
    16      1     14   1
    17     16     17   1
    18     11     16   1
    19     18     19   2
    20     19     20   1
    21     20     21   2
    22     21     22   1
    23     22     23   2
    24     23     18   1
    25     22     24   1
    26     24     25   2
    27     25     26   1
    28     26     27   2
    29     27     23   1
    30     25     28   1
    31     28     29   2
    32     29     30   1
    33     30     31   2
    34     31     26   1
    35      7     27   1
    36      2     32   1
    37      3     33   1
    38      5     34   1
    39      6     35   1
    40      9     36   1
    41     10     37   1
    42     12     38   1
    43     13     39   1
    44     15     40   1
    45     15     41   1
    46     15     42   1
    47     17     43   1
    48     17     44   1
    49     17     45   1
    50     18     46   1
    51     19     47   1
    52     20     48   1
    53     21     49   1
    54     28     50   1
    55     29     51   1
    56     30     52   1
    57     31     53   1
    58     54     55   2
    59     55     56   1
    60     56     57   2
    61     57     58   1
    62     58     59   2
    63     59     54   1
    64     60     61   2
    65     60     62   1
    66     57     60   1
    67     56     63   1
    68     58     64   1
    69     59     65   1
    70     24     54   1
