# Produced with molli package
@<TRIPOS>MOLECULE
B_3_P
68 73 0 0 0
SMALL
USER_CHARGES

@<TRIPOS>ATOM
     1 C      -5.882023     4.258945     0.433733 C          1 UNL1 0.000
     2 C      -6.518775     3.128048    -0.068957 C          1 UNL1 0.000
     3 C      -5.863677     1.885705    -0.056902 C          1 UNL1 0.000
     4 C      -4.580509     1.736162     0.496707 C          1 UNL1 0.000
     5 C      -3.956676     2.908882     0.974914 C          1 UNL1 0.000
     6 C      -4.602096     4.149316     0.958064 C          1 UNL1 0.000
     7 N      -3.891548     0.459324     0.542271 N          1 UNL1 0.000
     8 C      -4.536211    -0.842071     0.591716 C          1 UNL1 0.000
     9 C      -5.839218    -1.032269     1.085081 C          1 UNL1 0.000
    10 C      -6.434758    -2.305822     1.123194 C          1 UNL1 0.000
    11 C      -5.718132    -3.425421     0.709995 C          1 UNL1 0.000
    12 C      -4.425434    -3.269787     0.231181 C          1 UNL1 0.000
    13 C      -3.841198    -2.001545     0.185115 C          1 UNL1 0.000
    14 O      -6.477498     5.486157     0.519240 O          1 UNL1 0.000
    15 C      -6.988738     5.947100    -0.728112 C          1 UNL1 0.000
    16 O      -6.201692    -4.702479     0.701451 O          1 UNL1 0.000
    17 C      -6.963313    -5.051949     1.852219 C          1 UNL1 0.000
    18 C      -2.386702     0.355721     3.026406 C          1 UNL1 0.000
    19 C      -1.697865     0.322240     4.236615 C          1 UNL1 0.000
    20 C      -0.315975     0.333718     4.228900 C          1 UNL1 0.000
    21 C       0.362586     0.381613     3.011396 C          1 UNL1 0.000
    22 C      -0.309080     0.430081     1.760697 C          1 UNL1 0.000
    23 C      -1.722463     0.413963     1.774035 C          1 UNL1 0.000
    24 C       0.383380     0.502554     0.508728 C          1 UNL1 0.000
    25 C      -0.329570     0.561405    -0.731155 C          1 UNL1 0.000
    26 C      -1.743603     0.561644    -0.719565 C          1 UNL1 0.000
    27 C      -2.425982     0.484273     0.533038 C          1 UNL1 0.000
    28 C       0.319612     0.617291    -1.992867 C          1 UNL1 0.000
    29 C      -0.382117     0.662305    -3.197945 C          1 UNL1 0.000
    30 C      -1.764247     0.659892    -3.181232 C          1 UNL1 0.000
    31 C      -2.430750     0.613080    -1.959423 C          1 UNL1 0.000
    32 H      -7.531500     3.185911    -0.454936 H          1 UNL1 0.000
    33 H      -6.377254     1.039182    -0.503769 H          1 UNL1 0.000
    34 H      -2.954116     2.881624     1.392853 H          1 UNL1 0.000
    35 H      -4.097872     5.026206     1.355038 H          1 UNL1 0.000
    36 H      -6.414400    -0.196828     1.473876 H          1 UNL1 0.000
    37 H      -7.458048    -2.398458     1.473959 H          1 UNL1 0.000
    38 H      -3.857544    -4.137379    -0.094027 H          1 UNL1 0.000
    39 H      -2.821291    -1.947071    -0.185034 H          1 UNL1 0.000
    40 H      -6.210950     5.939564    -1.499558 H          1 UNL1 0.000
    41 H      -7.315315     6.982585    -0.589412 H          1 UNL1 0.000
    42 H      -7.858595     5.365544    -1.046885 H          1 UNL1 0.000
    43 H      -6.836662    -6.126709     2.016892 H          1 UNL1 0.000
    44 H      -8.024174    -4.855936     1.672385 H          1 UNL1 0.000
    45 H      -6.621975    -4.537714     2.757742 H          1 UNL1 0.000
    46 H      -3.474841     0.351658     3.069063 H          1 UNL1 0.000
    47 H      -2.243777     0.290772     5.175130 H          1 UNL1 0.000
    48 H       0.239917     0.308339     5.161949 H          1 UNL1 0.000
    49 H       1.451020     0.387180     3.054725 H          1 UNL1 0.000
    50 H       1.406890     0.620959    -2.053862 H          1 UNL1 0.000
    51 H       0.155008     0.697463    -4.141535 H          1 UNL1 0.000
    52 H      -2.328137     0.691351    -4.109140 H          1 UNL1 0.000
    53 H      -3.519353     0.605222    -1.983068 H          1 UNL1 0.000
    54 C       1.864882     0.542474     0.504300 C          1 UNL1 0.000
    55 C       2.621051    -0.636494     0.392381 C          1 UNL1 0.000
    56 C       4.018009    -0.591335     0.419962 C          1 UNL1 0.000
    57 C       4.665909     0.635730     0.552697 C          1 UNL1 0.000
    58 C       3.931736     1.810692     0.686222 C          1 UNL1 0.000
    59 C       2.538137     1.766760     0.647695 C          1 UNL1 0.000
    60 O       6.027404     0.738979     0.632304 O          1 UNL1 0.000
    61 C       6.660059     0.280831    -0.561016 C          1 UNL1 0.000
    62 H       2.118850    -1.597527     0.298632 H          1 UNL1 0.000
    63 H       4.585475    -1.515092     0.362928 H          1 UNL1 0.000
    64 H       4.443467     2.759676     0.817215 H          1 UNL1 0.000
    65 H       1.972377     2.690910     0.746962 H          1 UNL1 0.000
    66 H       7.686477     0.660156    -0.559040 H          1 UNL1 0.000
    67 H       6.161546     0.666608    -1.457932 H          1 UNL1 0.000
    68 H       6.703016    -0.812364    -0.584068 H          1 UNL1 0.000
@<TRIPOS>BOND
     1      1      2   2
     2      2      3   1
     3      3      4   2
     4      4      5   1
     5      5      6   2
     6      6      1   1
     7      4      7   1
     8      7      8   1
     9      8      9   2
    10      9     10   1
    11     10     11   2
    12     11     12   1
    13     12     13   2
    14     13      8   1
    15     14     15   1
    16      1     14   1
    17     16     17   1
    18     11     16   1
    19     18     19   2
    20     19     20   1
    21     20     21   2
    22     21     22   1
    23     22     23   2
    24     23     18   1
    25     22     24   1
    26     24     25   2
    27     25     26   1
    28     26     27   2
    29     27     23   1
    30     25     28   1
    31     28     29   2
    32     29     30   1
    33     30     31   2
    34     31     26   1
    35      7     27   1
    36      2     32   1
    37      3     33   1
    38      5     34   1
    39      6     35   1
    40      9     36   1
    41     10     37   1
    42     12     38   1
    43     13     39   1
    44     15     40   1
    45     15     41   1
    46     15     42   1
    47     17     43   1
    48     17     44   1
    49     17     45   1
    50     18     46   1
    51     19     47   1
    52     20     48   1
    53     21     49   1
    54     28     50   1
    55     29     51   1
    56     30     52   1
    57     31     53   1
    58     54     55   2
    59     55     56   1
    60     56     57   2
    61     57     58   1
    62     58     59   2
    63     59     54   1
    64     60     61   1
    65     57     60   1
    66     55     62   1
    67     56     63   1
    68     58     64   1
    69     59     65   1
    70     61     66   1
    71     61     67   1
    72     61     68   1
    73     24     54   1
