# Produced with molli package
@<TRIPOS>MOLECULE
B_4_S
61 64 0 0 0
SMALL
USER_CHARGES

@<TRIPOS>ATOM
     1 C      -5.213702     4.274974    -0.603117 C          1 UNL1 0.000
     2 C      -5.860595     3.137571    -0.136308 C          1 UNL1 0.000
     3 C      -5.200956     1.900513    -0.145992 C          1 UNL1 0.000
     4 C      -3.893506     1.768715    -0.645444 C          1 UNL1 0.000
     5 C      -3.244738     2.960747    -1.042694 C          1 UNL1 0.000
     6 C      -3.890964     4.201332    -1.015914 C          1 UNL1 0.000
     7 N      -3.208722     0.492377    -0.719595 N          1 UNL1 0.000
     8 C      -3.860858    -0.801572    -0.808531 C          1 UNL1 0.000
     9 C      -5.155175    -0.971408    -1.332818 C          1 UNL1 0.000
    10 C      -5.770808    -2.231474    -1.371825 C          1 UNL1 0.000
    11 C      -5.084722    -3.349803    -0.915242 C          1 UNL1 0.000
    12 C      -3.776915    -3.235392    -0.469080 C          1 UNL1 0.000
    13 C      -3.179707    -1.974017    -0.406540 C          1 UNL1 0.000
    14 O      -5.888747     5.463382    -0.573925 O          1 UNL1 0.000
    15 C      -6.136878     5.936164    -1.899103 C          1 UNL1 0.000
    16 O      -5.664276    -4.585443    -0.971758 O          1 UNL1 0.000
    17 C      -6.339019    -4.868772     0.255248 C          1 UNL1 0.000
    18 C      -1.769323     0.505695    -0.756582 C          1 UNL1 0.000
    19 C      -1.099006     0.394150    -1.979996 C          1 UNL1 0.000
    20 C       0.289778     0.425038    -2.006039 C          1 UNL1 0.000
    21 C       1.027214     0.477828    -0.822856 C          1 UNL1 0.000
    22 C       0.372628     0.560021     0.416220 C          1 UNL1 0.000
    23 C      -1.030086     0.607371     0.434206 C          1 UNL1 0.000
    24 O       0.912544     0.350093    -3.220736 O          1 UNL1 0.000
    25 C       1.419278     1.630380    -3.602417 C          1 UNL1 0.000
    26 H      -6.879818     3.208291     0.232757 H          1 UNL1 0.000
    27 H      -5.730700     1.045145     0.262706 H          1 UNL1 0.000
    28 H      -2.215899     2.947606    -1.392211 H          1 UNL1 0.000
    29 H      -3.352255     5.095871    -1.313468 H          1 UNL1 0.000
    30 H      -5.703444    -0.130229    -1.746871 H          1 UNL1 0.000
    31 H      -6.775908    -2.334794    -1.769870 H          1 UNL1 0.000
    32 H      -3.220907    -4.117217    -0.165397 H          1 UNL1 0.000
    33 H      -2.161344    -1.928368    -0.030514 H          1 UNL1 0.000
    34 H      -5.212869     6.267279    -2.384720 H          1 UNL1 0.000
    35 H      -6.806550     6.798478    -1.827643 H          1 UNL1 0.000
    36 H      -6.635054     5.171351    -2.506279 H          1 UNL1 0.000
    37 H      -6.397751    -5.956085     0.363695 H          1 UNL1 0.000
    38 H      -7.357724    -4.470474     0.215988 H          1 UNL1 0.000
    39 H      -5.815744    -4.472272     1.133976 H          1 UNL1 0.000
    40 H      -1.661443     0.310387    -2.905418 H          1 UNL1 0.000
    41 H       2.113055     0.445640    -0.866501 H          1 UNL1 0.000
    42 H      -1.562161     0.675523     1.381521 H          1 UNL1 0.000
    43 H       2.470048     1.711342    -3.308403 H          1 UNL1 0.000
    44 H       0.846804     2.464756    -3.177790 H          1 UNL1 0.000
    45 H       1.357980     1.704122    -4.692488 H          1 UNL1 0.000
    46 C       1.132707     0.560094     1.668593 C          1 UNL1 0.000
    47 C       1.335210     1.742190     2.390267 C          1 UNL1 0.000
    48 C       2.065373     1.732185     3.583483 C          1 UNL1 0.000
    49 C       2.603151     0.538214     4.083899 C          1 UNL1 0.000
    50 C       2.386203    -0.650408     3.380231 C          1 UNL1 0.000
    51 C       1.663481    -0.634479     2.180173 C          1 UNL1 0.000
    52 C       3.383031     0.594795     5.357199 C          1 UNL1 0.000
    53 C       4.095606    -0.633511     5.860738 C          1 UNL1 0.000
    54 O       3.420988     1.645587     5.999437 O          1 UNL1 0.000
    55 H       0.927873     2.683328     2.025682 H          1 UNL1 0.000
    56 H       2.212119     2.667382     4.121845 H          1 UNL1 0.000
    57 H       2.757458    -1.605562     3.738025 H          1 UNL1 0.000
    58 H       1.506013    -1.569764     1.644324 H          1 UNL1 0.000
    59 H       4.978380    -0.319134     6.427119 H          1 UNL1 0.000
    60 H       4.456617    -1.265221     5.047203 H          1 UNL1 0.000
    61 H       3.429633    -1.199329     6.516852 H          1 UNL1 0.000
@<TRIPOS>BOND
     1      1      2   2
     2      2      3   1
     3      3      4   2
     4      4      5   1
     5      5      6   2
     6      6      1   1
     7      4      7   1
     8      7      8   1
     9      8      9   2
    10      9     10   1
    11     10     11   2
    12     11     12   1
    13     12     13   2
    14     13      8   1
    15     14     15   1
    16      1     14   1
    17     16     17   1
    18     11     16   1
    19     18     19   2
    20     19     20   1
    21     20     21   2
    22     21     22   1
    23     22     23   2
    24     23     18   1
    25     24     25   1
    26     20     24   1
    27      7     18   1
    28      2     26   1
    29      3     27   1
    30      5     28   1
    31      6     29   1
    32      9     30   1
    33     10     31   1
    34     12     32   1
    35     13     33   1
    36     15     34   1
    37     15     35   1
    38     15     36   1
    39     17     37   1
    40     17     38   1
    41     17     39   1
    42     19     40   1
    43     21     41   1
    44     23     42   1
    45     25     43   1
    46     25     44   1
    47     25     45   1
    48     46     47   2
    49     47     48   1
    50     48     49   2
    51     49     50   1
    52     50     51   2
    53     51     46   1
    54     49     52   1
    55     52     53   1
    56     52     54   2
    57     47     55   1
    58     48     56   1
    59     50     57   1
    60     51     58   1
    61     53     59   1
    62     53     60   1
    63     53     61   1
    64     22     46   1
