# Produced with molli package
@<TRIPOS>MOLECULE
B_4_Q
54 57 0 0 0
SMALL
USER_CHARGES

@<TRIPOS>ATOM
     1 C      -5.290186     4.270035    -0.468863 C          1 UNL1 0.000
     2 C      -5.887544     3.139516     0.074755 C          1 UNL1 0.000
     3 C      -5.222389     1.909835     0.025952 C          1 UNL1 0.000
     4 C      -3.951055     1.787681    -0.566414 C          1 UNL1 0.000
     5 C      -3.345735     2.965887    -1.047085 C          1 UNL1 0.000
     6 C      -4.006674     4.197341    -0.998026 C          1 UNL1 0.000
     7 N      -3.279442     0.510901    -0.657042 N          1 UNL1 0.000
     8 C      -3.990478    -0.741857    -0.751440 C          1 UNL1 0.000
     9 C      -5.200607    -0.850047    -1.456524 C          1 UNL1 0.000
    10 C      -5.909129    -2.056079    -1.496209 C          1 UNL1 0.000
    11 C      -5.426157    -3.181863    -0.832792 C          1 UNL1 0.000
    12 C      -4.195236    -3.115901    -0.186123 C          1 UNL1 0.000
    13 C      -3.485353    -1.909011    -0.149870 C          1 UNL1 0.000
    14 O      -5.969233     5.454994    -0.401463 O          1 UNL1 0.000
    15 C      -6.336605     5.902630    -1.707001 C          1 UNL1 0.000
    16 O      -6.218216    -4.294353    -0.902892 O          1 UNL1 0.000
    17 C      -6.096417    -5.194161     0.194823 C          1 UNL1 0.000
    18 C      -1.844808     0.482473    -0.692598 C          1 UNL1 0.000
    19 C      -1.175278     0.338257    -1.912638 C          1 UNL1 0.000
    20 C       0.214426     0.362807    -1.939862 C          1 UNL1 0.000
    21 C       0.953781     0.419659    -0.759199 C          1 UNL1 0.000
    22 C       0.301800     0.527225     0.479291 C          1 UNL1 0.000
    23 C      -1.101276     0.602739     0.492923 C          1 UNL1 0.000
    24 O       0.848366     0.289224    -3.149929 O          1 UNL1 0.000
    25 C       1.246890     1.597989    -3.566746 C          1 UNL1 0.000
    26 H      -6.870722     3.208830     0.530904 H          1 UNL1 0.000
    27 H      -5.708438     1.046295     0.473105 H          1 UNL1 0.000
    28 H      -2.351214     2.942698    -1.483879 H          1 UNL1 0.000
    29 H      -3.509567     5.088850    -1.367739 H          1 UNL1 0.000
    30 H      -5.605313     0.005679    -1.991025 H          1 UNL1 0.000
    31 H      -6.851856    -2.109759    -2.034555 H          1 UNL1 0.000
    32 H      -3.759389    -3.984581     0.296036 H          1 UNL1 0.000
    33 H      -2.539368    -1.890393     0.384278 H          1 UNL1 0.000
    34 H      -5.458425     6.176454    -2.301083 H          1 UNL1 0.000
    35 H      -6.955518     6.797478    -1.592376 H          1 UNL1 0.000
    36 H      -6.930792     5.144567    -2.230196 H          1 UNL1 0.000
    37 H      -5.179842    -5.786496     0.112999 H          1 UNL1 0.000
    38 H      -6.945185    -5.883756     0.157646 H          1 UNL1 0.000
    39 H      -6.138774    -4.667447     1.155166 H          1 UNL1 0.000
    40 H      -1.737908     0.250055    -2.837400 H          1 UNL1 0.000
    41 H       2.039788     0.389670    -0.808638 H          1 UNL1 0.000
    42 H      -1.627324     0.716808     1.439784 H          1 UNL1 0.000
    43 H       2.161277     1.901187    -3.046193 H          1 UNL1 0.000
    44 H       0.456865     2.342376    -3.407680 H          1 UNL1 0.000
    45 H       1.459396     1.559691    -4.639256 H          1 UNL1 0.000
    46 C       1.056115     0.530493     1.731090 C          1 UNL1 0.000
    47 N       1.018524     1.672325     2.462948 N          1 UNL1 0.000
    48 C       1.714053     1.649713     3.624048 C          1 UNL1 0.000
    49 C       2.413548     0.534704     4.054657 C          1 UNL1 0.000
    50 N       2.454950    -0.612166     3.341863 N          1 UNL1 0.000
    51 C       1.763360    -0.586321     2.175754 C          1 UNL1 0.000
    52 H       1.694090     2.563965     4.206444 H          1 UNL1 0.000
    53 H       2.961370     0.534152     4.989906 H          1 UNL1 0.000
    54 H       1.781174    -1.509127     1.604513 H          1 UNL1 0.000
@<TRIPOS>BOND
     1      1      2   2
     2      2      3   1
     3      3      4   2
     4      4      5   1
     5      5      6   2
     6      6      1   1
     7      4      7   1
     8      7      8   1
     9      8      9   2
    10      9     10   1
    11     10     11   2
    12     11     12   1
    13     12     13   2
    14     13      8   1
    15     14     15   1
    16      1     14   1
    17     16     17   1
    18     11     16   1
    19     18     19   2
    20     19     20   1
    21     20     21   2
    22     21     22   1
    23     22     23   2
    24     23     18   1
    25     24     25   1
    26     20     24   1
    27      7     18   1
    28      2     26   1
    29      3     27   1
    30      5     28   1
    31      6     29   1
    32      9     30   1
    33     10     31   1
    34     12     32   1
    35     13     33   1
    36     15     34   1
    37     15     35   1
    38     15     36   1
    39     17     37   1
    40     17     38   1
    41     17     39   1
    42     19     40   1
    43     21     41   1
    44     23     42   1
    45     25     43   1
    46     25     44   1
    47     25     45   1
    48     46     47   2
    49     47     48   1
    50     48     49   2
    51     49     50   1
    52     50     51   2
    53     51     46   1
    54     48     52   1
    55     49     53   1
    56     51     54   1
    57     22     46   1
