# Produced with molli package
@<TRIPOS>MOLECULE
B_4_N
53 56 0 0 0
SMALL
USER_CHARGES

@<TRIPOS>ATOM
     1 C      -5.226635     4.313573    -0.941467 C          1 UNL1 0.000
     2 C      -5.831697     3.171951    -1.461795 C          1 UNL1 0.000
     3 C      -5.185863     1.928521    -1.372912 C          1 UNL1 0.000
     4 C      -3.935238     1.795266    -0.745772 C          1 UNL1 0.000
     5 C      -3.349791     2.967164    -0.226884 C          1 UNL1 0.000
     6 C      -3.992928     4.205588    -0.310409 C          1 UNL1 0.000
     7 N      -3.245919     0.527423    -0.668386 N          1 UNL1 0.000
     8 C      -3.910392    -0.754780    -0.599854 C          1 UNL1 0.000
     9 C      -5.157787    -0.917129     0.026248 C          1 UNL1 0.000
    10 C      -5.777963    -2.174970     0.110626 C          1 UNL1 0.000
    11 C      -5.151357    -3.303481    -0.413688 C          1 UNL1 0.000
    12 C      -3.919259    -3.164266    -1.042675 C          1 UNL1 0.000
    13 C      -3.302454    -1.912654    -1.123293 C          1 UNL1 0.000
    14 O      -5.776819     5.564780    -0.956077 O          1 UNL1 0.000
    15 C      -6.466380     5.892490    -2.157901 C          1 UNL1 0.000
    16 O      -5.649052    -4.575944    -0.393547 O          1 UNL1 0.000
    17 C      -6.555954    -4.867887     0.662341 C          1 UNL1 0.000
    18 C      -1.808699     0.539741    -0.693333 C          1 UNL1 0.000
    19 C      -1.127227     0.617936    -1.913969 C          1 UNL1 0.000
    20 C       0.263917     0.591854    -1.930895 C          1 UNL1 0.000
    21 C       0.994683     0.502938    -0.747062 C          1 UNL1 0.000
    22 C       0.321060     0.460179     0.478975 C          1 UNL1 0.000
    23 C      -1.079121     0.454914     0.502484 C          1 UNL1 0.000
    24 O       0.900282     0.568838    -3.140733 O          1 UNL1 0.000
    25 C       1.320844     1.880847    -3.511463 C          1 UNL1 0.000
    26 H      -6.809644     3.217093    -1.929575 H          1 UNL1 0.000
    27 H      -5.670413     1.065871    -1.823560 H          1 UNL1 0.000
    28 H      -2.383568     2.936056     0.268275 H          1 UNL1 0.000
    29 H      -3.519161     5.089334     0.109047 H          1 UNL1 0.000
    30 H      -5.658701    -0.067151     0.483096 H          1 UNL1 0.000
    31 H      -6.750476    -2.238611     0.587289 H          1 UNL1 0.000
    32 H      -3.422742    -4.035704    -1.462239 H          1 UNL1 0.000
    33 H      -2.336005    -1.864047    -1.617189 H          1 UNL1 0.000
    34 H      -5.857556     5.668127    -3.040830 H          1 UNL1 0.000
    35 H      -6.655897     6.970417    -2.147943 H          1 UNL1 0.000
    36 H      -7.434222     5.385290    -2.209089 H          1 UNL1 0.000
    37 H      -6.684962    -5.954128     0.698077 H          1 UNL1 0.000
    38 H      -7.535492    -4.420286     0.469647 H          1 UNL1 0.000
    39 H      -6.159125    -4.548178     1.632128 H          1 UNL1 0.000
    40 H      -1.683397     0.664377    -2.845848 H          1 UNL1 0.000
    41 H       2.079964     0.471918    -0.784344 H          1 UNL1 0.000
    42 H      -1.614549     0.392024     1.447508 H          1 UNL1 0.000
    43 H       2.326322     2.068435    -3.122779 H          1 UNL1 0.000
    44 H       0.632076     2.662496    -3.169493 H          1 UNL1 0.000
    45 H       1.360046     1.921677    -4.604267 H          1 UNL1 0.000
    46 C       1.068922     0.424941     1.724275 C          1 UNL1 0.000
    47 C       0.998891     1.466049     2.629938 C          1 UNL1 0.000
    48 S       1.972900     1.194842     4.011160 S          1 UNL1 0.000
    49 C       2.496787    -0.318223     3.410173 C          1 UNL1 0.000
    50 C       1.946732    -0.606241     2.179869 C          1 UNL1 0.000
    51 H       0.428068     2.381798     2.551281 H          1 UNL1 0.000
    52 H       3.182366    -0.922798     3.987683 H          1 UNL1 0.000
    53 H       2.154213    -1.520986     1.637911 H          1 UNL1 0.000
@<TRIPOS>BOND
     1      1      2   2
     2      2      3   1
     3      3      4   2
     4      4      5   1
     5      5      6   2
     6      6      1   1
     7      4      7   1
     8      7      8   1
     9      8      9   2
    10      9     10   1
    11     10     11   2
    12     11     12   1
    13     12     13   2
    14     13      8   1
    15     14     15   1
    16      1     14   1
    17     16     17   1
    18     11     16   1
    19     18     19   2
    20     19     20   1
    21     20     21   2
    22     21     22   1
    23     22     23   2
    24     23     18   1
    25     24     25   1
    26     20     24   1
    27      7     18   1
    28      2     26   1
    29      3     27   1
    30      5     28   1
    31      6     29   1
    32      9     30   1
    33     10     31   1
    34     12     32   1
    35     13     33   1
    36     15     34   1
    37     15     35   1
    38     15     36   1
    39     17     37   1
    40     17     38   1
    41     17     39   1
    42     19     40   1
    43     21     41   1
    44     23     42   1
    45     25     43   1
    46     25     44   1
    47     25     45   1
    48     46     47   2
    49     47     48   1
    50     48     49   1
    51     49     50   2
    52     50     46   1
    53     47     51   1
    54     49     52   1
    55     50     53   1
    56     22     46   1
