# Produced with molli package
@<TRIPOS>MOLECULE
B_4_M
57 60 0 0 0
SMALL
USER_CHARGES

@<TRIPOS>ATOM
     1 C      -5.148517     4.418926    -0.957387 C          1 UNL1 0.000
     2 C      -5.834576     3.277044    -1.356940 C          1 UNL1 0.000
     3 C      -5.194124     2.026191    -1.346044 C          1 UNL1 0.000
     4 C      -3.880581     1.871854    -0.871783 C          1 UNL1 0.000
     5 C      -3.204103     3.059257    -0.510206 C          1 UNL1 0.000
     6 C      -3.828761     4.311665    -0.543712 C          1 UNL1 0.000
     7 N      -3.216800     0.583315    -0.774639 N          1 UNL1 0.000
     8 C      -3.880796    -0.708346    -0.722350 C          1 UNL1 0.000
     9 C      -5.192822    -0.883422    -0.248787 C          1 UNL1 0.000
    10 C      -5.819764    -2.143661    -0.250077 C          1 UNL1 0.000
    11 C      -5.121809    -3.273038    -0.667172 C          1 UNL1 0.000
    12 C      -3.812587    -3.136985    -1.105392 C          1 UNL1 0.000
    13 C      -3.201305    -1.880166    -1.122167 C          1 UNL1 0.000
    14 O      -5.733745     5.648198    -0.844212 O          1 UNL1 0.000
    15 C      -6.343567     6.102703    -2.048557 C          1 UNL1 0.000
    16 O      -5.623009    -4.542011    -0.713664 O          1 UNL1 0.000
    17 C      -6.536250    -4.871628     0.325972 C          1 UNL1 0.000
    18 C      -1.774876     0.580610    -0.783991 C          1 UNL1 0.000
    19 C      -1.085664     0.584224    -2.002518 C          1 UNL1 0.000
    20 C       0.303057     0.552822    -2.007215 C          1 UNL1 0.000
    21 C       1.022141     0.524300    -0.812143 C          1 UNL1 0.000
    22 C       0.351031     0.547773     0.421050 C          1 UNL1 0.000
    23 C      -1.053085     0.557895     0.422677 C          1 UNL1 0.000
    24 O       0.939635     0.470917    -3.214484 O          1 UNL1 0.000
    25 C       1.521097     1.726678    -3.560502 C          1 UNL1 0.000
    26 H      -6.877667     3.329499    -1.652669 H          1 UNL1 0.000
    27 H      -5.756038     1.177155    -1.722874 H          1 UNL1 0.000
    28 H      -2.172781     3.035904    -0.169945 H          1 UNL1 0.000
    29 H      -3.281507     5.197715    -0.233770 H          1 UNL1 0.000
    30 H      -5.757277    -0.045798     0.150500 H          1 UNL1 0.000
    31 H      -6.853986    -2.213592     0.072768 H          1 UNL1 0.000
    32 H      -3.254182    -4.011864    -1.428139 H          1 UNL1 0.000
    33 H      -2.172734    -1.846579    -1.469647 H          1 UNL1 0.000
    34 H      -5.582554     6.290857    -2.812885 H          1 UNL1 0.000
    35 H      -6.843326     7.051175    -1.827312 H          1 UNL1 0.000
    36 H      -7.103634     5.411981    -2.424194 H          1 UNL1 0.000
    37 H      -6.465169    -5.950653     0.495588 H          1 UNL1 0.000
    38 H      -7.559080    -4.640754     0.014833 H          1 UNL1 0.000
    39 H      -6.294908    -4.374322     1.271846 H          1 UNL1 0.000
    40 H      -1.635510     0.582520    -2.939274 H          1 UNL1 0.000
    41 H       2.108183     0.481970    -0.841173 H          1 UNL1 0.000
    42 H      -1.598502     0.558326     1.364746 H          1 UNL1 0.000
    43 H       2.482567     1.851542    -3.052971 H          1 UNL1 0.000
    44 H       0.855848     2.567589    -3.331532 H          1 UNL1 0.000
    45 H       1.700133     1.724084    -4.639848 H          1 UNL1 0.000
    46 C       1.104459     0.580412     1.677805 C          1 UNL1 0.000
    47 C       1.261476     1.785397     2.381172 C          1 UNL1 0.000
    48 C       2.004281     1.833487     3.565157 C          1 UNL1 0.000
    49 C       2.598091     0.672145     4.066685 C          1 UNL1 0.000
    50 C       2.440769    -0.535906     3.380735 C          1 UNL1 0.000
    51 C       1.700203    -0.579502     2.194203 C          1 UNL1 0.000
    52 C       3.368833     0.721989     5.274013 C          1 UNL1 0.000
    53 N       3.996558     0.765749     6.250342 N          1 UNL1 0.000
    54 H       0.811446     2.700804     2.000166 H          1 UNL1 0.000
    55 H       2.117872     2.782538     4.086050 H          1 UNL1 0.000
    56 H       2.894286    -1.449813     3.760187 H          1 UNL1 0.000
    57 H       1.588711    -1.527961     1.671106 H          1 UNL1 0.000
@<TRIPOS>BOND
     1      1      2   2
     2      2      3   1
     3      3      4   2
     4      4      5   1
     5      5      6   2
     6      6      1   1
     7      4      7   1
     8      7      8   1
     9      8      9   2
    10      9     10   1
    11     10     11   2
    12     11     12   1
    13     12     13   2
    14     13      8   1
    15     14     15   1
    16      1     14   1
    17     16     17   1
    18     11     16   1
    19     18     19   2
    20     19     20   1
    21     20     21   2
    22     21     22   1
    23     22     23   2
    24     23     18   1
    25     24     25   1
    26     20     24   1
    27      7     18   1
    28      2     26   1
    29      3     27   1
    30      5     28   1
    31      6     29   1
    32      9     30   1
    33     10     31   1
    34     12     32   1
    35     13     33   1
    36     15     34   1
    37     15     35   1
    38     15     36   1
    39     17     37   1
    40     17     38   1
    41     17     39   1
    42     19     40   1
    43     21     41   1
    44     23     42   1
    45     25     43   1
    46     25     44   1
    47     25     45   1
    48     46     47   2
    49     47     48   1
    50     48     49   2
    51     49     50   1
    52     50     51   2
    53     51     46   1
    54     52     53   3
    55     49     52   1
    56     47     54   1
    57     48     55   1
    58     50     56   1
    59     51     57   1
    60     22     46   1
