# Produced with molli package
@<TRIPOS>MOLECULE
B_4_O
55 58 0 0 0
SMALL
USER_CHARGES

@<TRIPOS>ATOM
     1 C      -5.369072     4.254870    -0.884500 C          1 UNL1 0.000
     2 C      -5.905188     3.128572    -1.504401 C          1 UNL1 0.000
     3 C      -5.209941     1.910630    -1.471723 C          1 UNL1 0.000
     4 C      -3.978797     1.788904    -0.804011 C          1 UNL1 0.000
     5 C      -3.458548     2.945588    -0.192055 C          1 UNL1 0.000
     6 C      -4.153443     4.158454    -0.216905 C          1 UNL1 0.000
     7 N      -3.253984     0.540524    -0.768524 N          1 UNL1 0.000
     8 C      -3.888458    -0.755368    -0.688591 C          1 UNL1 0.000
     9 C      -5.139330    -0.936723    -0.074872 C          1 UNL1 0.000
    10 C      -5.731003    -2.206588     0.026084 C          1 UNL1 0.000
    11 C      -5.073503    -3.330082    -0.469553 C          1 UNL1 0.000
    12 C      -3.835159    -3.171139    -1.084401 C          1 UNL1 0.000
    13 C      -3.248051    -1.906175    -1.185791 C          1 UNL1 0.000
    14 O      -5.991923     5.470692    -0.827059 O          1 UNL1 0.000
    15 C      -6.537618     5.896984    -2.071729 C          1 UNL1 0.000
    16 O      -5.527311    -4.618143    -0.422504 O          1 UNL1 0.000
    17 C      -6.624255    -4.874204     0.444554 C          1 UNL1 0.000
    18 C      -1.818433     0.592898    -0.788326 C          1 UNL1 0.000
    19 C      -1.135550     0.725404    -2.002632 C          1 UNL1 0.000
    20 C       0.255158     0.759766    -2.018448 C          1 UNL1 0.000
    21 C       0.979240     0.658757    -0.828289 C          1 UNL1 0.000
    22 C       0.312373     0.542963     0.402054 C          1 UNL1 0.000
    23 C      -1.089502     0.496527     0.406808 C          1 UNL1 0.000
    24 O       0.857421     0.815974    -3.245914 O          1 UNL1 0.000
    25 C       1.735160     1.933212    -3.363862 C          1 UNL1 0.000
    26 H      -6.868692     3.166899    -2.001712 H          1 UNL1 0.000
    27 H      -5.638651     1.056254    -1.989820 H          1 UNL1 0.000
    28 H      -2.510108     2.917622     0.338160 H          1 UNL1 0.000
    29 H      -3.736029     5.029361     0.281436 H          1 UNL1 0.000
    30 H      -5.664865    -0.091761     0.363282 H          1 UNL1 0.000
    31 H      -6.703384    -2.279440     0.501440 H          1 UNL1 0.000
    32 H      -3.311935    -4.037949    -1.480492 H          1 UNL1 0.000
    33 H      -2.278657    -1.840090    -1.672319 H          1 UNL1 0.000
    34 H      -5.796803     5.825523    -2.875836 H          1 UNL1 0.000
    35 H      -6.818311     6.949711    -1.967157 H          1 UNL1 0.000
    36 H      -7.442691     5.336214    -2.322683 H          1 UNL1 0.000
    37 H      -6.763359    -5.958586     0.493839 H          1 UNL1 0.000
    38 H      -7.545051    -4.435574     0.047774 H          1 UNL1 0.000
    39 H      -6.422230    -4.519509     1.460957 H          1 UNL1 0.000
    40 H      -1.691244     0.785899    -2.934227 H          1 UNL1 0.000
    41 H       2.065533     0.665675    -0.847405 H          1 UNL1 0.000
    42 H      -1.624651     0.408432     1.350632 H          1 UNL1 0.000
    43 H       2.670730     1.757367    -2.824521 H          1 UNL1 0.000
    44 H       1.256341     2.857141    -3.020460 H          1 UNL1 0.000
    45 H       1.976840     2.053465    -4.424332 H          1 UNL1 0.000
    46 C       1.054179     0.491483     1.661022 C          1 UNL1 0.000
    47 N       1.137962     1.665974     2.332372 N          1 UNL1 0.000
    48 C       1.803770     1.661659     3.507797 C          1 UNL1 0.000
    49 C       2.393284     0.534882     4.054462 C          1 UNL1 0.000
    50 C       2.296600    -0.661763     3.354847 C          1 UNL1 0.000
    51 C       1.618523    -0.688164     2.138114 C          1 UNL1 0.000
    52 H       1.850301     2.620902     4.015136 H          1 UNL1 0.000
    53 H       2.913306     0.589093     5.004554 H          1 UNL1 0.000
    54 H       2.741471    -1.568807     3.753610 H          1 UNL1 0.000
    55 H       1.524505    -1.613564     1.579735 H          1 UNL1 0.000
@<TRIPOS>BOND
     1      1      2   2
     2      2      3   1
     3      3      4   2
     4      4      5   1
     5      5      6   2
     6      6      1   1
     7      4      7   1
     8      7      8   1
     9      8      9   2
    10      9     10   1
    11     10     11   2
    12     11     12   1
    13     12     13   2
    14     13      8   1
    15     14     15   1
    16      1     14   1
    17     16     17   1
    18     11     16   1
    19     18     19   2
    20     19     20   1
    21     20     21   2
    22     21     22   1
    23     22     23   2
    24     23     18   1
    25     24     25   1
    26     20     24   1
    27      7     18   1
    28      2     26   1
    29      3     27   1
    30      5     28   1
    31      6     29   1
    32      9     30   1
    33     10     31   1
    34     12     32   1
    35     13     33   1
    36     15     34   1
    37     15     35   1
    38     15     36   1
    39     17     37   1
    40     17     38   1
    41     17     39   1
    42     19     40   1
    43     21     41   1
    44     23     42   1
    45     25     43   1
    46     25     44   1
    47     25     45   1
    48     46     47   2
    49     47     48   1
    50     48     49   2
    51     49     50   1
    52     50     51   2
    53     51     46   1
    54     48     52   1
    55     49     53   1
    56     50     54   1
    57     51     55   1
    58     22     46   1
