# Produced with molli package
@<TRIPOS>MOLECULE
B_4_P
60 63 0 0 0
SMALL
USER_CHARGES

@<TRIPOS>ATOM
     1 C      -5.190953     4.214599    -0.635242 C          1 UNL1 0.000
     2 C      -5.779150     3.112790    -0.024064 C          1 UNL1 0.000
     3 C      -5.118668     1.877976    -0.020047 C          1 UNL1 0.000
     4 C      -3.860005     1.721074    -0.627433 C          1 UNL1 0.000
     5 C      -3.262204     2.873255    -1.178416 C          1 UNL1 0.000
     6 C      -3.917226     4.108767    -1.181007 C          1 UNL1 0.000
     7 N      -3.182686     0.444384    -0.659469 N          1 UNL1 0.000
     8 C      -3.870524    -0.826906    -0.717325 C          1 UNL1 0.000
     9 C      -5.123293    -0.967911    -1.342697 C          1 UNL1 0.000
    10 C      -5.778213    -2.204749    -1.389021 C          1 UNL1 0.000
    11 C      -5.186114    -3.321682    -0.811685 C          1 UNL1 0.000
    12 C      -3.926304    -3.229026    -0.233866 C          1 UNL1 0.000
    13 C      -3.279381    -1.991218    -0.183084 C          1 UNL1 0.000
    14 O      -5.874578     5.398755    -0.609870 O          1 UNL1 0.000
    15 C      -6.139675     5.878044    -1.928807 C          1 UNL1 0.000
    16 O      -5.820170    -4.529859    -0.896505 O          1 UNL1 0.000
    17 C      -6.430436    -4.857641     0.352292 C          1 UNL1 0.000
    18 C      -1.745892     0.435334    -0.688982 C          1 UNL1 0.000
    19 C      -1.065954     0.260161    -1.900142 C          1 UNL1 0.000
    20 C       0.323745     0.292761    -1.921879 C          1 UNL1 0.000
    21 C       1.049734     0.394267    -0.733990 C          1 UNL1 0.000
    22 C       0.387489     0.536787     0.495292 C          1 UNL1 0.000
    23 C      -1.014567     0.593801     0.499103 C          1 UNL1 0.000
    24 O       0.939589     0.170824    -3.137943 O          1 UNL1 0.000
    25 C       1.704719     1.337100    -3.445951 C          1 UNL1 0.000
    26 H      -6.754364     3.209080     0.444667 H          1 UNL1 0.000
    27 H      -5.597487     1.040861     0.481472 H          1 UNL1 0.000
    28 H      -2.276002     2.825589    -1.631997 H          1 UNL1 0.000
    29 H      -3.417565     4.975856    -1.601542 H          1 UNL1 0.000
    30 H      -5.596225    -0.119076    -1.829554 H          1 UNL1 0.000
    31 H      -6.741874    -2.293156    -1.881709 H          1 UNL1 0.000
    32 H      -3.440129    -4.111308     0.171483 H          1 UNL1 0.000
    33 H      -2.301921    -1.951501     0.290214 H          1 UNL1 0.000
    34 H      -5.222157     6.188502    -2.439046 H          1 UNL1 0.000
    35 H      -6.785182     6.757167    -1.841929 H          1 UNL1 0.000
    36 H      -6.671697     5.124752    -2.521080 H          1 UNL1 0.000
    37 H      -6.814032    -5.879766     0.279660 H          1 UNL1 0.000
    38 H      -7.274907    -4.189248     0.552014 H          1 UNL1 0.000
    39 H      -5.716338    -4.826040     1.182850 H          1 UNL1 0.000
    40 H      -1.622721     0.136088    -2.824584 H          1 UNL1 0.000
    41 H       2.135610     0.350967    -0.760089 H          1 UNL1 0.000
    42 H      -1.552652     0.710039     1.438298 H          1 UNL1 0.000
    43 H       2.656138     1.332031    -2.904901 H          1 UNL1 0.000
    44 H       1.147241     2.257205    -3.232303 H          1 UNL1 0.000
    45 H       1.924411     1.320480    -4.517665 H          1 UNL1 0.000
    46 C       1.138876     0.586938     1.753250 C          1 UNL1 0.000
    47 C       1.815732    -0.551951     2.223174 C          1 UNL1 0.000
    48 C       2.518366    -0.521115     3.430053 C          1 UNL1 0.000
    49 C       2.563555     0.658484     4.167943 C          1 UNL1 0.000
    50 C       1.878866     1.790001     3.734556 C          1 UNL1 0.000
    51 C       1.175295     1.756220     2.528194 C          1 UNL1 0.000
    52 O       3.214611     0.720661     5.369238 O          1 UNL1 0.000
    53 C       4.628608     0.679026     5.178453 C          1 UNL1 0.000
    54 H       1.778265    -1.480569     1.656436 H          1 UNL1 0.000
    55 H       3.008328    -1.419233     3.793564 H          1 UNL1 0.000
    56 H       1.894695     2.696839     4.331913 H          1 UNL1 0.000
    57 H       0.651487     2.649653     2.194976 H          1 UNL1 0.000
    58 H       5.101994     0.878804     6.144402 H          1 UNL1 0.000
    59 H       4.957141     1.452450     4.474679 H          1 UNL1 0.000
    60 H       4.955369    -0.309890     4.840672 H          1 UNL1 0.000
@<TRIPOS>BOND
     1      1      2   2
     2      2      3   1
     3      3      4   2
     4      4      5   1
     5      5      6   2
     6      6      1   1
     7      4      7   1
     8      7      8   1
     9      8      9   2
    10      9     10   1
    11     10     11   2
    12     11     12   1
    13     12     13   2
    14     13      8   1
    15     14     15   1
    16      1     14   1
    17     16     17   1
    18     11     16   1
    19     18     19   2
    20     19     20   1
    21     20     21   2
    22     21     22   1
    23     22     23   2
    24     23     18   1
    25     24     25   1
    26     20     24   1
    27      7     18   1
    28      2     26   1
    29      3     27   1
    30      5     28   1
    31      6     29   1
    32      9     30   1
    33     10     31   1
    34     12     32   1
    35     13     33   1
    36     15     34   1
    37     15     35   1
    38     15     36   1
    39     17     37   1
    40     17     38   1
    41     17     39   1
    42     19     40   1
    43     21     41   1
    44     23     42   1
    45     25     43   1
    46     25     44   1
    47     25     45   1
    48     46     47   2
    49     47     48   1
    50     48     49   2
    51     49     50   1
    52     50     51   2
    53     51     46   1
    54     52     53   1
    55     49     52   1
    56     47     54   1
    57     48     55   1
    58     50     56   1
    59     51     57   1
    60     53     58   1
    61     53     59   1
    62     53     60   1
    63     22     46   1
