# Produced with molli package
@<TRIPOS>MOLECULE
B_4_K
58 61 0 0 0
SMALL
USER_CHARGES

@<TRIPOS>ATOM
     1 C      -5.135026     4.385780    -0.650029 C          1 UNL1 0.000
     2 C      -5.769948     3.272202    -0.114291 C          1 UNL1 0.000
     3 C      -5.126950     2.029465    -0.134296 C          1 UNL1 0.000
     4 C      -3.845059     1.876817    -0.696066 C          1 UNL1 0.000
     5 C      -3.203933     3.040359    -1.168464 C          1 UNL1 0.000
     6 C      -3.839805     4.285230    -1.143370 C          1 UNL1 0.000
     7 N      -3.195755     0.586299    -0.768848 N          1 UNL1 0.000
     8 C      -3.920595    -0.657115    -0.902809 C          1 UNL1 0.000
     9 C      -5.148997    -0.729094    -1.581793 C          1 UNL1 0.000
    10 C      -5.872811    -1.924659    -1.646889 C          1 UNL1 0.000
    11 C      -5.382909    -3.076046    -1.038142 C          1 UNL1 0.000
    12 C      -4.128428    -3.054085    -0.436744 C          1 UNL1 0.000
    13 C      -3.407252    -1.855781    -0.369984 C          1 UNL1 0.000
    14 O      -5.782043     5.589734    -0.616137 O          1 UNL1 0.000
    15 C      -6.212555     5.958699    -1.927585 C          1 UNL1 0.000
    16 O      -6.184099    -4.181706    -1.107283 O          1 UNL1 0.000
    17 C      -6.176240    -4.976283     0.077064 C          1 UNL1 0.000
    18 C      -1.760187     0.538092    -0.761877 C          1 UNL1 0.000
    19 C      -1.059190     0.370541    -1.961436 C          1 UNL1 0.000
    20 C       0.330429     0.372735    -1.949804 C          1 UNL1 0.000
    21 C       1.036071     0.443128    -0.749732 C          1 UNL1 0.000
    22 C       0.351586     0.578369     0.467572 C          1 UNL1 0.000
    23 C      -1.049926     0.659788     0.445079 C          1 UNL1 0.000
    24 O       1.000405     0.255393    -3.136567 O          1 UNL1 0.000
    25 C       1.390792     1.550059    -3.600039 C          1 UNL1 0.000
    26 H      -6.764135     3.364817     0.313070 H          1 UNL1 0.000
    27 H      -5.641320     1.179529     0.307332 H          1 UNL1 0.000
    28 H      -2.201638     2.993680    -1.584913 H          1 UNL1 0.000
    29 H      -3.320406     5.165361    -1.510057 H          1 UNL1 0.000
    30 H      -5.560620     0.147169    -2.075704 H          1 UNL1 0.000
    31 H      -6.832064    -1.949337    -2.156996 H          1 UNL1 0.000
    32 H      -3.691070    -3.953032    -0.014148 H          1 UNL1 0.000
    33 H      -2.442993    -1.871436     0.131081 H          1 UNL1 0.000
    34 H      -5.364375     6.109675    -2.604169 H          1 UNL1 0.000
    35 H      -6.751948     6.907314    -1.849255 H          1 UNL1 0.000
    36 H      -6.899461     5.210339    -2.338990 H          1 UNL1 0.000
    37 H      -5.342210    -5.684296     0.055602 H          1 UNL1 0.000
    38 H      -7.108348    -5.548877     0.101227 H          1 UNL1 0.000
    39 H      -6.141832    -4.364389     0.986456 H          1 UNL1 0.000
    40 H      -1.597372     0.273285    -2.899792 H          1 UNL1 0.000
    41 H       2.122009     0.388790    -0.765463 H          1 UNL1 0.000
    42 H      -1.605286     0.773658     1.374370 H          1 UNL1 0.000
    43 H       2.247633     1.919872    -3.026979 H          1 UNL1 0.000
    44 H       0.564678     2.270041    -3.552758 H          1 UNL1 0.000
    45 H       1.693864     1.455597    -4.646904 H          1 UNL1 0.000
    46 C       1.086356     0.597131     1.735597 C          1 UNL1 0.000
    47 C       1.255348     1.790629     2.457189 C          1 UNL1 0.000
    48 C       1.975953     1.805562     3.655139 C          1 UNL1 0.000
    49 C       2.517320     0.610608     4.140046 C          1 UNL1 0.000
    50 C       2.351764    -0.592588     3.449351 C          1 UNL1 0.000
    51 C       1.641642    -0.590673     2.246779 C          1 UNL1 0.000
    52 N       3.274735     0.620232     5.386643 N          1 UNL1 0.000
    53 O       3.174131    -0.371961     6.122312 O          1 UNL1 0.000
    54 O       3.969631     1.617613     5.623358 O          1 UNL1 0.000
    55 H       0.831413     2.719915     2.079433 H          1 UNL1 0.000
    56 H       2.104305     2.741092     4.195158 H          1 UNL1 0.000
    57 H       2.771277    -1.522711     3.826487 H          1 UNL1 0.000
    58 H       1.516201    -1.526526     1.703214 H          1 UNL1 0.000
@<TRIPOS>BOND
     1      1      2   2
     2      2      3   1
     3      3      4   2
     4      4      5   1
     5      5      6   2
     6      6      1   1
     7      4      7   1
     8      7      8   1
     9      8      9   2
    10      9     10   1
    11     10     11   2
    12     11     12   1
    13     12     13   2
    14     13      8   1
    15     14     15   1
    16      1     14   1
    17     16     17   1
    18     11     16   1
    19     18     19   2
    20     19     20   1
    21     20     21   2
    22     21     22   1
    23     22     23   2
    24     23     18   1
    25     24     25   1
    26     20     24   1
    27      7     18   1
    28      2     26   1
    29      3     27   1
    30      5     28   1
    31      6     29   1
    32      9     30   1
    33     10     31   1
    34     12     32   1
    35     13     33   1
    36     15     34   1
    37     15     35   1
    38     15     36   1
    39     17     37   1
    40     17     38   1
    41     17     39   1
    42     19     40   1
    43     21     41   1
    44     23     42   1
    45     25     43   1
    46     25     44   1
    47     25     45   1
    48     46     47   2
    49     47     48   1
    50     48     49   2
    51     49     50   1
    52     50     51   2
    53     51     46   1
    54     52     53   2
    55     52     54   1
    56     49     52   1
    57     47     55   1
    58     48     56   1
    59     50     57   1
    60     51     58   1
    61     22     46   1
