# Produced with molli package
@<TRIPOS>MOLECULE
B_4_T
59 62 0 0 0
SMALL
USER_CHARGES

@<TRIPOS>ATOM
     1 C      -5.343329     4.247400    -0.486988 C          1 UNL1 0.000
     2 C      -5.839226     3.104640     0.131290 C          1 UNL1 0.000
     3 C      -5.133096     1.900378     0.051270 C          1 UNL1 0.000
     4 C      -3.911691     1.817344    -0.641952 C          1 UNL1 0.000
     5 C      -3.396572     3.003275    -1.195836 C          1 UNL1 0.000
     6 C      -4.105034     4.208113    -1.122733 C          1 UNL1 0.000
     7 N      -3.207946     0.564477    -0.771362 N          1 UNL1 0.000
     8 C      -3.895670    -0.698212    -0.895329 C          1 UNL1 0.000
     9 C      -5.126554    -0.798099    -1.567658 C          1 UNL1 0.000
    10 C      -5.813168    -2.014189    -1.641698 C          1 UNL1 0.000
    11 C      -5.290310    -3.154976    -1.039947 C          1 UNL1 0.000
    12 C      -4.042116    -3.095362    -0.424747 C          1 UNL1 0.000
    13 C      -3.352303    -1.878508    -0.357450 C          1 UNL1 0.000
    14 O      -6.102525     5.380128    -0.382425 O          1 UNL1 0.000
    15 C      -6.257052     6.063219    -1.625264 C          1 UNL1 0.000
    16 O      -6.053008    -4.285781    -1.137940 O          1 UNL1 0.000
    17 C      -5.996001    -5.132860     0.006745 C          1 UNL1 0.000
    18 C      -1.773077     0.574395    -0.803985 C          1 UNL1 0.000
    19 C      -1.094376     0.427565    -2.019440 C          1 UNL1 0.000
    20 C       0.295412     0.472288    -2.044166 C          1 UNL1 0.000
    21 C       1.024293     0.558988    -0.857538 C          1 UNL1 0.000
    22 C       0.364605     0.671953     0.375763 C          1 UNL1 0.000
    23 C      -1.038463     0.718069     0.384604 C          1 UNL1 0.000
    24 O       0.914062     0.368408    -3.260613 O          1 UNL1 0.000
    25 C       1.622121     1.568642    -3.575023 C          1 UNL1 0.000
    26 H      -6.786073     3.142712     0.663393 H          1 UNL1 0.000
    27 H      -5.545647     1.024582     0.545759 H          1 UNL1 0.000
    28 H      -2.443794     3.001162    -1.718963 H          1 UNL1 0.000
    29 H      -3.669860     5.100903    -1.559025 H          1 UNL1 0.000
    30 H      -5.562510     0.072273    -2.051024 H          1 UNL1 0.000
    31 H      -6.768939    -2.063846    -2.157095 H          1 UNL1 0.000
    32 H      -3.579822    -3.978395     0.003101 H          1 UNL1 0.000
    33 H      -2.390039    -1.863467     0.148431 H          1 UNL1 0.000
    34 H      -5.352825     6.623476    -1.882019 H          1 UNL1 0.000
    35 H      -7.074084     6.782101    -1.511652 H          1 UNL1 0.000
    36 H      -6.528308     5.372752    -2.432518 H          1 UNL1 0.000
    37 H      -5.073574    -5.721490     0.011173 H          1 UNL1 0.000
    38 H      -6.837576    -5.829746    -0.051638 H          1 UNL1 0.000
    39 H      -6.100394    -4.562376     0.937018 H          1 UNL1 0.000
    40 H      -1.651457     0.312545    -2.944715 H          1 UNL1 0.000
    41 H       2.110560     0.522224    -0.887251 H          1 UNL1 0.000
    42 H      -1.572766     0.810334     1.328524 H          1 UNL1 0.000
    43 H       2.547153     1.642297    -2.994313 H          1 UNL1 0.000
    44 H       0.999110     2.457245    -3.417195 H          1 UNL1 0.000
    45 H       1.890661     1.531421    -4.635022 H          1 UNL1 0.000
    46 C       1.121768     0.687729     1.630900 C          1 UNL1 0.000
    47 C       1.754169    -0.478053     2.090013 C          1 UNL1 0.000
    48 C       2.466769    -0.484296     3.291970 C          1 UNL1 0.000
    49 C       2.558079     0.676748     4.064954 C          1 UNL1 0.000
    50 C       1.944095     1.847658     3.605444 C          1 UNL1 0.000
    51 C       1.226810     1.850756     2.404464 C          1 UNL1 0.000
    52 C       3.344165     0.684752     5.342295 C          1 UNL1 0.000
    53 H       1.685581    -1.397865     1.512074 H          1 UNL1 0.000
    54 H       2.944310    -1.404778     3.620023 H          1 UNL1 0.000
    55 H       2.017582     2.767050     4.182111 H          1 UNL1 0.000
    56 H       0.753381     2.772034     2.071634 H          1 UNL1 0.000
    57 H       2.824971     1.267681     6.110126 H          1 UNL1 0.000
    58 H       4.333936     1.118779     5.170598 H          1 UNL1 0.000
    59 H       3.472119    -0.329614     5.735041 H          1 UNL1 0.000
@<TRIPOS>BOND
     1      1      2   2
     2      2      3   1
     3      3      4   2
     4      4      5   1
     5      5      6   2
     6      6      1   1
     7      4      7   1
     8      7      8   1
     9      8      9   2
    10      9     10   1
    11     10     11   2
    12     11     12   1
    13     12     13   2
    14     13      8   1
    15     14     15   1
    16      1     14   1
    17     16     17   1
    18     11     16   1
    19     18     19   2
    20     19     20   1
    21     20     21   2
    22     21     22   1
    23     22     23   2
    24     23     18   1
    25     24     25   1
    26     20     24   1
    27      7     18   1
    28      2     26   1
    29      3     27   1
    30      5     28   1
    31      6     29   1
    32      9     30   1
    33     10     31   1
    34     12     32   1
    35     13     33   1
    36     15     34   1
    37     15     35   1
    38     15     36   1
    39     17     37   1
    40     17     38   1
    41     17     39   1
    42     19     40   1
    43     21     41   1
    44     23     42   1
    45     25     43   1
    46     25     44   1
    47     25     45   1
    48     46     47   2
    49     47     48   1
    50     48     49   2
    51     49     50   1
    52     50     51   2
    53     51     46   1
    54     49     52   1
    55     47     53   1
    56     48     54   1
    57     50     55   1
    58     51     56   1
    59     52     57   1
    60     52     58   1
    61     52     59   1
    62     22     46   1
