# Produced with molli package
@<TRIPOS>MOLECULE
B_4_R
57 60 0 0 0
SMALL
USER_CHARGES

@<TRIPOS>ATOM
     1 C      -5.287775     4.308730    -0.894371 C          1 UNL1 0.000
     2 C      -5.915413     3.151094    -1.343195 C          1 UNL1 0.000
     3 C      -5.235338     1.924323    -1.305212 C          1 UNL1 0.000
     4 C      -3.935674     1.819979    -0.777499 C          1 UNL1 0.000
     5 C      -3.326516     3.017988    -0.343954 C          1 UNL1 0.000
     6 C      -3.996636     4.245326    -0.390162 C          1 UNL1 0.000
     7 N      -3.226210     0.559563    -0.704877 N          1 UNL1 0.000
     8 C      -3.857658    -0.742962    -0.629464 C          1 UNL1 0.000
     9 C      -5.112866    -0.944444    -0.032164 C          1 UNL1 0.000
    10 C      -5.696036    -2.222432     0.043924 C          1 UNL1 0.000
    11 C      -5.019298    -3.336347    -0.447617 C          1 UNL1 0.000
    12 C      -3.771272    -3.162457    -1.033447 C          1 UNL1 0.000
    13 C      -3.197837    -1.890595    -1.115716 C          1 UNL1 0.000
    14 O      -5.930519     5.514129    -0.843894 O          1 UNL1 0.000
    15 C      -6.243415     6.002594    -2.146569 C          1 UNL1 0.000
    16 O      -5.466534    -4.626948    -0.429392 O          1 UNL1 0.000
    17 C      -6.493575    -4.924239     0.506962 C          1 UNL1 0.000
    18 C      -1.787224     0.591353    -0.709466 C          1 UNL1 0.000
    19 C      -1.090935     0.633686    -1.922033 C          1 UNL1 0.000
    20 C       0.297179     0.577289    -1.917734 C          1 UNL1 0.000
    21 C       1.008071     0.485919    -0.720541 C          1 UNL1 0.000
    22 C       0.331441     0.474518     0.511293 C          1 UNL1 0.000
    23 C      -1.072699     0.520638     0.498575 C          1 UNL1 0.000
    24 O       0.948732     0.510874    -3.118161 O          1 UNL1 0.000
    25 C       1.475379     1.788680    -3.471631 C          1 UNL1 0.000
    26 H      -6.937486     3.184621    -1.707971 H          1 UNL1 0.000
    27 H      -5.742891     1.051143    -1.705646 H          1 UNL1 0.000
    28 H      -2.319020     3.017044     0.064070 H          1 UNL1 0.000
    29 H      -3.507174     5.144592    -0.026924 H          1 UNL1 0.000
    30 H      -5.653830    -0.112141     0.410545 H          1 UNL1 0.000
    31 H      -6.679977    -2.310852     0.492657 H          1 UNL1 0.000
    32 H      -3.229218    -4.021406    -1.421168 H          1 UNL1 0.000
    33 H      -2.218436    -1.821517    -1.580306 H          1 UNL1 0.000
    34 H      -5.338542     6.100456    -2.756455 H          1 UNL1 0.000
    35 H      -6.681977     6.998767    -2.031213 H          1 UNL1 0.000
    36 H      -6.980801     5.369493    -2.649628 H          1 UNL1 0.000
    37 H      -6.601042    -6.012732     0.546567 H          1 UNL1 0.000
    38 H      -7.450231    -4.504173     0.182308 H          1 UNL1 0.000
    39 H      -6.230116    -4.579833     1.512740 H          1 UNL1 0.000
    40 H      -1.634556     0.667343    -2.861650 H          1 UNL1 0.000
    41 H       2.093133     0.428978    -0.752217 H          1 UNL1 0.000
    42 H      -1.623124     0.499333     1.438210 H          1 UNL1 0.000
    43 H       2.426491     1.958842    -2.957634 H          1 UNL1 0.000
    44 H       0.773456     2.602479    -3.255443 H          1 UNL1 0.000
    45 H       1.663584     1.783745    -4.549494 H          1 UNL1 0.000
    46 C       1.061567     0.414974     1.781800 C          1 UNL1 0.000
    47 N       0.808358     1.427449     2.652594 N          1 UNL1 0.000
    48 C       1.482294     1.434243     3.830354 C          1 UNL1 0.000
    49 C       2.399174     0.457752     4.179752 C          1 UNL1 0.000
    50 C       2.644604    -0.590302     3.292558 C          1 UNL1 0.000
    51 C       1.964574    -0.608480     2.074062 C          1 UNL1 0.000
    52 N       3.096675     0.540347     5.452400 N          1 UNL1 0.000
    53 O       4.095329    -0.175332     5.605630 O          1 UNL1 0.000
    54 O       2.651174     1.323216     6.303488 O          1 UNL1 0.000
    55 H       1.250123     2.276804     4.477469 H          1 UNL1 0.000
    56 H       3.347128    -1.385259     3.530411 H          1 UNL1 0.000
    57 H       2.131294    -1.417369     1.368168 H          1 UNL1 0.000
@<TRIPOS>BOND
     1      1      2   2
     2      2      3   1
     3      3      4   2
     4      4      5   1
     5      5      6   2
     6      6      1   1
     7      4      7   1
     8      7      8   1
     9      8      9   2
    10      9     10   1
    11     10     11   2
    12     11     12   1
    13     12     13   2
    14     13      8   1
    15     14     15   1
    16      1     14   1
    17     16     17   1
    18     11     16   1
    19     18     19   2
    20     19     20   1
    21     20     21   2
    22     21     22   1
    23     22     23   2
    24     23     18   1
    25     24     25   1
    26     20     24   1
    27      7     18   1
    28      2     26   1
    29      3     27   1
    30      5     28   1
    31      6     29   1
    32      9     30   1
    33     10     31   1
    34     12     32   1
    35     13     33   1
    36     15     34   1
    37     15     35   1
    38     15     36   1
    39     17     37   1
    40     17     38   1
    41     17     39   1
    42     19     40   1
    43     21     41   1
    44     23     42   1
    45     25     43   1
    46     25     44   1
    47     25     45   1
    48     46     47   2
    49     47     48   1
    50     48     49   2
    51     49     50   1
    52     50     51   2
    53     51     46   1
    54     52     53   2
    55     52     54   1
    56     49     52   1
    57     48     55   1
    58     50     56   1
    59     51     57   1
    60     22     46   1
