# Produced with molli package
@<TRIPOS>MOLECULE
B_4_L
60 64 0 0 0
SMALL
USER_CHARGES

@<TRIPOS>ATOM
     1 C      -5.155634     4.239580    -0.711555 C          1 UNL1 0.000
     2 C      -5.803535     3.123157    -0.197822 C          1 UNL1 0.000
     3 C      -5.142250     1.888859    -0.157292 C          1 UNL1 0.000
     4 C      -3.830129     1.742227    -0.644328 C          1 UNL1 0.000
     5 C      -3.178881     2.914184    -1.085954 C          1 UNL1 0.000
     6 C      -3.830060     4.151257    -1.115748 C          1 UNL1 0.000
     7 N      -3.156018     0.459801    -0.667116 N          1 UNL1 0.000
     8 C      -3.840905    -0.812293    -0.760204 C          1 UNL1 0.000
     9 C      -5.076987    -0.948356    -1.416927 C          1 UNL1 0.000
    10 C      -5.746425    -2.176172    -1.460578 C          1 UNL1 0.000
    11 C      -5.185240    -3.294308    -0.856362 C          1 UNL1 0.000
    12 C      -3.927194    -3.215505    -0.271447 C          1 UNL1 0.000
    13 C      -3.265655    -1.983509    -0.221736 C          1 UNL1 0.000
    14 O      -5.830110     5.428563    -0.740522 O          1 UNL1 0.000
    15 C      -6.084842     5.829700    -2.088101 C          1 UNL1 0.000
    16 O      -5.886527    -4.464747    -0.911279 O          1 UNL1 0.000
    17 C      -6.238392    -4.935004     0.390810 C          1 UNL1 0.000
    18 C      -1.718810     0.445885    -0.696198 C          1 UNL1 0.000
    19 C      -1.044057     0.334565    -1.917551 C          1 UNL1 0.000
    20 C       0.344310     0.385513    -1.942261 C          1 UNL1 0.000
    21 C       1.077746     0.445130    -0.757292 C          1 UNL1 0.000
    22 C       0.420260     0.521422     0.480342 C          1 UNL1 0.000
    23 C      -0.982972     0.556660     0.494993 C          1 UNL1 0.000
    24 O       0.967453     0.337005    -3.159180 O          1 UNL1 0.000
    25 C       1.508637     1.618145    -3.487826 C          1 UNL1 0.000
    26 H      -6.823882     3.206322     0.165127 H          1 UNL1 0.000
    27 H      -5.671469     1.042783     0.272946 H          1 UNL1 0.000
    28 H      -2.149493     2.885455    -1.431953 H          1 UNL1 0.000
    29 H      -3.294366     5.033143    -1.453429 H          1 UNL1 0.000
    30 H      -5.533918    -0.100935    -1.920353 H          1 UNL1 0.000
    31 H      -6.708790    -2.255027    -1.957846 H          1 UNL1 0.000
    32 H      -3.453930    -4.098871     0.146517 H          1 UNL1 0.000
    33 H      -2.292857    -1.952534     0.262072 H          1 UNL1 0.000
    34 H      -5.157516     6.047098    -2.628880 H          1 UNL1 0.000
    35 H      -6.677459     6.748862    -2.058474 H          1 UNL1 0.000
    36 H      -6.666495     5.067928    -2.619785 H          1 UNL1 0.000
    37 H      -5.683683    -5.853779     0.602278 H          1 UNL1 0.000
    38 H      -7.307343    -5.169554     0.384197 H          1 UNL1 0.000
    39 H      -6.060181    -4.206639     1.191594 H          1 UNL1 0.000
    40 H      -1.603611     0.250490    -2.844601 H          1 UNL1 0.000
    41 H       2.164191     0.425873    -0.795681 H          1 UNL1 0.000
    42 H      -1.516088     0.627440     1.441385 H          1 UNL1 0.000
    43 H       2.476907     1.759660    -2.997364 H          1 UNL1 0.000
    44 H       0.826620     2.436365    -3.224698 H          1 UNL1 0.000
    45 H       1.664468     1.649174    -4.570328 H          1 UNL1 0.000
    46 C       1.180762     0.529800     1.733954 C          1 UNL1 0.000
    47 C       1.284654     1.694614     2.506104 C          1 UNL1 0.000
    48 C       2.003125     1.721082     3.708392 C          1 UNL1 0.000
    49 C       2.613670     0.533509     4.123946 C          1 UNL1 0.000
    50 C       2.531403    -0.649789     3.391471 C          1 UNL1 0.000
    51 C       1.809383    -0.648183     2.182060 C          1 UNL1 0.000
    52 N       3.368029     0.263079     5.243341 N          1 UNL1 0.000
    53 C       3.758320    -1.049799     5.246990 C          1 UNL1 0.000
    54 C       3.253540    -1.641223     4.111084 C          1 UNL1 0.000
    55 H       0.800773     2.609644     2.167859 H          1 UNL1 0.000
    56 H       2.076312     2.633245     4.291444 H          1 UNL1 0.000
    57 H       1.731874    -1.565038     1.603093 H          1 UNL1 0.000
    58 H       3.595265     0.940886     5.958465 H          1 UNL1 0.000
    59 H       4.358234    -1.448942     6.053371 H          1 UNL1 0.000
    60 H       3.387158    -2.676291     3.825690 H          1 UNL1 0.000
@<TRIPOS>BOND
     1      1      2   2
     2      2      3   1
     3      3      4   2
     4      4      5   1
     5      5      6   2
     6      6      1   1
     7      4      7   1
     8      7      8   1
     9      8      9   2
    10      9     10   1
    11     10     11   2
    12     11     12   1
    13     12     13   2
    14     13      8   1
    15     14     15   1
    16      1     14   1
    17     16     17   1
    18     11     16   1
    19     18     19   2
    20     19     20   1
    21     20     21   2
    22     21     22   1
    23     22     23   2
    24     23     18   1
    25     24     25   1
    26     20     24   1
    27      7     18   1
    28      2     26   1
    29      3     27   1
    30      5     28   1
    31      6     29   1
    32      9     30   1
    33     10     31   1
    34     12     32   1
    35     13     33   1
    36     15     34   1
    37     15     35   1
    38     15     36   1
    39     17     37   1
    40     17     38   1
    41     17     39   1
    42     19     40   1
    43     21     41   1
    44     23     42   1
    45     25     43   1
    46     25     44   1
    47     25     45   1
    48     46     47   2
    49     47     48   1
    50     48     49   2
    51     49     50   1
    52     50     51   2
    53     51     46   1
    54     49     52   1
    55     52     53   1
    56     53     54   2
    57     54     50   1
    58     47     55   1
    59     48     56   1
    60     51     57   1
    61     52     58   1
    62     53     59   1
    63     54     60   1
    64     22     46   1
