# Produced with molli package
@<TRIPOS>MOLECULE
B_5_T
61 65 0 0 0
SMALL
USER_CHARGES

@<TRIPOS>ATOM
     1 C      -7.413538     4.321244     2.897181 C          1 UNL1 0.000
     2 C      -7.981013     3.220373     2.260105 C          1 UNL1 0.000
     3 C      -7.312681     1.984567     2.256993 C          1 UNL1 0.000
     4 C      -6.082661     1.814038     2.914877 C          1 UNL1 0.000
     5 C      -5.524652     2.952140     3.530961 C          1 UNL1 0.000
     6 C      -6.187285     4.183129     3.535963 C          1 UNL1 0.000
     7 N      -5.389335     0.545700     2.943665 N          1 UNL1 0.000
     8 C      -6.039351    -0.749752     2.999607 C          1 UNL1 0.000
     9 C      -7.353892    -0.923759     3.466151 C          1 UNL1 0.000
    10 C      -7.949462    -2.195596     3.533513 C          1 UNL1 0.000
    11 C      -7.227065    -3.328820     3.169106 C          1 UNL1 0.000
    12 C      -5.927852    -3.185680     2.701052 C          1 UNL1 0.000
    13 C      -5.341983    -1.918824     2.625834 C          1 UNL1 0.000
    14 O      -8.004056     5.549139     3.005279 O          1 UNL1 0.000
    15 C      -8.637987     6.005122     1.815311 C          1 UNL1 0.000
    16 O      -7.702613    -4.609333     3.202092 O          1 UNL1 0.000
    17 C      -8.572828    -4.892942     4.292191 C          1 UNL1 0.000
    18 C      -3.949883     0.571439     2.971383 C          1 UNL1 0.000
    19 C      -3.264452     0.419820     4.182951 C          1 UNL1 0.000
    20 C      -1.870272     0.395701     4.201947 C          1 UNL1 0.000
    21 C      -1.139698     0.478672     3.006517 C          1 UNL1 0.000
    22 C      -1.822721     0.617805     1.777089 C          1 UNL1 0.000
    23 C      -3.224837     0.690169     1.775552 C          1 UNL1 0.000
    24 C       0.259336     0.404677     3.008729 C          1 UNL1 0.000
    25 C       0.974666     0.432167     1.809196 C          1 UNL1 0.000
    26 C       0.313696     0.545221     0.579492 C          1 UNL1 0.000
    27 C      -1.086163     0.652849     0.579341 C          1 UNL1 0.000
    28 H      -8.950912     3.288473     1.778486 H          1 UNL1 0.000
    29 H      -7.768449     1.155915     1.720855 H          1 UNL1 0.000
    30 H      -4.567964     2.897014     4.042839 H          1 UNL1 0.000
    31 H      -5.737720     5.035458     4.038582 H          1 UNL1 0.000
    32 H      -7.938133    -0.075778     3.812102 H          1 UNL1 0.000
    33 H      -8.978640    -2.271610     3.869711 H          1 UNL1 0.000
    34 H      -5.355306    -4.062189     2.409117 H          1 UNL1 0.000
    35 H      -4.317770    -1.870316     2.265480 H          1 UNL1 0.000
    36 H      -7.955904     5.953817     0.959736 H          1 UNL1 0.000
    37 H      -8.907875     7.055157     1.966482 H          1 UNL1 0.000
    38 H      -9.560563     5.452432     1.616259 H          1 UNL1 0.000
    39 H      -8.599707    -5.979566     4.420607 H          1 UNL1 0.000
    40 H      -9.588964    -4.553333     4.071361 H          1 UNL1 0.000
    41 H      -8.208696    -4.457526     5.229608 H          1 UNL1 0.000
    42 H      -3.821680     0.324095     5.111447 H          1 UNL1 0.000
    43 H      -1.359727     0.287372     5.155677 H          1 UNL1 0.000
    44 H      -3.769999     0.790081     0.839846 H          1 UNL1 0.000
    45 H       0.806108     0.308952     3.943631 H          1 UNL1 0.000
    46 H       2.060371     0.361661     1.838682 H          1 UNL1 0.000
    47 H      -1.609424     0.734990    -0.372066 H          1 UNL1 0.000
    48 C       1.071529     0.533132    -0.676335 C          1 UNL1 0.000
    49 C       1.165458     1.681336    -1.474351 C          1 UNL1 0.000
    50 C       1.909921     1.672754    -2.658255 C          1 UNL1 0.000
    51 C       2.574254     0.512882    -3.070067 C          1 UNL1 0.000
    52 C       2.472163    -0.641575    -2.287071 C          1 UNL1 0.000
    53 C       1.731268    -0.629587    -1.102099 C          1 UNL1 0.000
    54 C       3.378155     0.489968    -4.335918 C          1 UNL1 0.000
    55 H       0.667330     2.598965    -1.168131 H          1 UNL1 0.000
    56 H       1.970191     2.582562    -3.250907 H          1 UNL1 0.000
    57 H       2.971433    -1.558277    -2.592886 H          1 UNL1 0.000
    58 H       1.666150    -1.540360    -0.509929 H          1 UNL1 0.000
    59 H       2.920256    -0.190231    -5.060939 H          1 UNL1 0.000
    60 H       4.400974     0.159110    -4.127648 H          1 UNL1 0.000
    61 H       3.437124     1.483600    -4.792023 H          1 UNL1 0.000
@<TRIPOS>BOND
     1      1      2   2
     2      2      3   1
     3      3      4   2
     4      4      5   1
     5      5      6   2
     6      6      1   1
     7      4      7   1
     8      7      8   1
     9      8      9   2
    10      9     10   1
    11     10     11   2
    12     11     12   1
    13     12     13   2
    14     13      8   1
    15     14     15   1
    16      1     14   1
    17     16     17   1
    18     11     16   1
    19     18     19   2
    20     19     20   1
    21     20     21   2
    22     21     22   1
    23     22     23   2
    24     23     18   1
    25     21     24   1
    26     24     25   2
    27     25     26   1
    28     26     27   2
    29     27     22   1
    30      7     18   1
    31      2     28   1
    32      3     29   1
    33      5     30   1
    34      6     31   1
    35      9     32   1
    36     10     33   1
    37     12     34   1
    38     13     35   1
    39     15     36   1
    40     15     37   1
    41     15     38   1
    42     17     39   1
    43     17     40   1
    44     17     41   1
    45     19     42   1
    46     20     43   1
    47     23     44   1
    48     24     45   1
    49     25     46   1
    50     27     47   1
    51     48     49   2
    52     49     50   1
    53     50     51   2
    54     51     52   1
    55     52     53   2
    56     53     48   1
    57     51     54   1
    58     49     55   1
    59     50     56   1
    60     52     57   1
    61     53     58   1
    62     54     59   1
    63     54     60   1
    64     54     61   1
    65     26     48   1
