# Produced with molli package
@<TRIPOS>MOLECULE
B_5_N
55 59 0 0 0
SMALL
USER_CHARGES

@<TRIPOS>ATOM
     1 C      -7.529212     4.257159     3.142946 C          1 UNL1 0.000
     2 C      -8.089671     3.136081     3.745966 C          1 UNL1 0.000
     3 C      -7.407855     1.913191     3.725475 C          1 UNL1 0.000
     4 C      -6.153336     1.788458     3.102627 C          1 UNL1 0.000
     5 C      -5.585553     2.956317     2.553306 C          1 UNL1 0.000
     6 C      -6.262474     4.179832     2.575577 C          1 UNL1 0.000
     7 N      -5.447239     0.527114     3.052414 N          1 UNL1 0.000
     8 C      -6.112382    -0.753744     2.984348 C          1 UNL1 0.000
     9 C      -7.362010    -0.907129     2.355979 C          1 UNL1 0.000
    10 C      -8.012473    -2.145609     2.324645 C          1 UNL1 0.000
    11 C      -7.421502    -3.252664     2.921105 C          1 UNL1 0.000
    12 C      -6.157546    -3.149831     3.491403 C          1 UNL1 0.000
    13 C      -5.512709    -1.909333     3.525507 C          1 UNL1 0.000
    14 O      -8.233731     5.427818     3.203133 O          1 UNL1 0.000
    15 C      -8.490795     5.959539     1.903276 C          1 UNL1 0.000
    16 O      -8.080855    -4.446730     2.859384 O          1 UNL1 0.000
    17 C      -8.473324    -4.909394     4.152476 C          1 UNL1 0.000
    18 C      -4.010425     0.555850     3.054303 C          1 UNL1 0.000
    19 C      -3.312342     0.836499     4.234855 C          1 UNL1 0.000
    20 C      -1.918563     0.902054     4.228725 C          1 UNL1 0.000
    21 C      -1.200520     0.731905     3.035252 C          1 UNL1 0.000
    22 C      -1.899073     0.460143     1.834828 C          1 UNL1 0.000
    23 C      -3.297492     0.346714     1.864168 C          1 UNL1 0.000
    24 C       0.196857     0.850694     3.005236 C          1 UNL1 0.000
    25 C       0.895517     0.745013     1.800585 C          1 UNL1 0.000
    26 C       0.207938     0.500096     0.609802 C          1 UNL1 0.000
    27 C      -1.182923     0.341638     0.632417 C          1 UNL1 0.000
    28 H      -9.059999     3.208899     4.229012 H          1 UNL1 0.000
    29 H      -7.865262     1.061008     4.221397 H          1 UNL1 0.000
    30 H      -4.604632     2.929758     2.085551 H          1 UNL1 0.000
    31 H      -5.781612     5.059942     2.160329 H          1 UNL1 0.000
    32 H      -7.840438    -0.063776     1.864723 H          1 UNL1 0.000
    33 H      -8.978839    -2.241412     1.838197 H          1 UNL1 0.000
    34 H      -5.667659    -4.024558     3.908448 H          1 UNL1 0.000
    35 H      -4.535344    -1.856747     3.998375 H          1 UNL1 0.000
    36 H      -7.573231     6.306189     1.417323 H          1 UNL1 0.000
    37 H      -9.150643     6.824421     2.020618 H          1 UNL1 0.000
    38 H      -9.005086     5.224644     1.273560 H          1 UNL1 0.000
    39 H      -8.147891    -5.948143     4.261276 H          1 UNL1 0.000
    40 H      -9.565916    -4.882127     4.209864 H          1 UNL1 0.000
    41 H      -8.067684    -4.324636     4.986685 H          1 UNL1 0.000
    42 H      -3.858572     0.998566     5.160705 H          1 UNL1 0.000
    43 H      -1.399221     1.112713     5.160917 H          1 UNL1 0.000
    44 H      -3.851971     0.142231     0.950590 H          1 UNL1 0.000
    45 H       0.752935     1.048520     3.919077 H          1 UNL1 0.000
    46 H       1.976884     0.861007     1.798955 H          1 UNL1 0.000
    47 H      -1.716699     0.162253    -0.299238 H          1 UNL1 0.000
    48 C       0.931388     0.464138    -0.649723 C          1 UNL1 0.000
    49 C       0.998243    -0.680237    -1.418712 C          1 UNL1 0.000
    50 S       1.907557    -0.447428    -2.851461 S          1 UNL1 0.000
    51 C       2.216802     1.187768    -2.456618 C          1 UNL1 0.000
    52 C       1.645569     1.545594    -1.255360 C          1 UNL1 0.000
    53 H       0.564175    -1.649275    -1.211906 H          1 UNL1 0.000
    54 H       2.800646     1.807990    -3.122825 H          1 UNL1 0.000
    55 H       1.723752     2.541295    -0.835170 H          1 UNL1 0.000
@<TRIPOS>BOND
     1      1      2   2
     2      2      3   1
     3      3      4   2
     4      4      5   1
     5      5      6   2
     6      6      1   1
     7      4      7   1
     8      7      8   1
     9      8      9   2
    10      9     10   1
    11     10     11   2
    12     11     12   1
    13     12     13   2
    14     13      8   1
    15     14     15   1
    16      1     14   1
    17     16     17   1
    18     11     16   1
    19     18     19   2
    20     19     20   1
    21     20     21   2
    22     21     22   1
    23     22     23   2
    24     23     18   1
    25     21     24   1
    26     24     25   2
    27     25     26   1
    28     26     27   2
    29     27     22   1
    30      7     18   1
    31      2     28   1
    32      3     29   1
    33      5     30   1
    34      6     31   1
    35      9     32   1
    36     10     33   1
    37     12     34   1
    38     13     35   1
    39     15     36   1
    40     15     37   1
    41     15     38   1
    42     17     39   1
    43     17     40   1
    44     17     41   1
    45     19     42   1
    46     20     43   1
    47     23     44   1
    48     24     45   1
    49     25     46   1
    50     27     47   1
    51     48     49   2
    52     49     50   1
    53     50     51   1
    54     51     52   2
    55     52     48   1
    56     49     53   1
    57     51     54   1
    58     52     55   1
    59     26     48   1
