# Produced with molli package
@<TRIPOS>MOLECULE
B_5_R
59 63 0 0 0
SMALL
USER_CHARGES

@<TRIPOS>ATOM
     1 C      -7.458114     4.295229     2.831155 C          1 UNL1 0.000
     2 C      -8.098692     3.149284     2.369835 C          1 UNL1 0.000
     3 C      -7.421309     1.921454     2.367592 C          1 UNL1 0.000
     4 C      -6.109006     1.806615     2.861049 C          1 UNL1 0.000
     5 C      -5.487006     2.991246     3.309224 C          1 UNL1 0.000
     6 C      -6.156989     4.218581     3.308231 C          1 UNL1 0.000
     7 N      -5.407146     0.542174     2.891670 N          1 UNL1 0.000
     8 C      -6.055098    -0.746907     3.007292 C          1 UNL1 0.000
     9 C      -7.262536    -0.925297     3.702876 C          1 UNL1 0.000
    10 C      -7.857075    -2.192484     3.827706 C          1 UNL1 0.000
    11 C      -7.241122    -3.315312     3.279343 C          1 UNL1 0.000
    12 C      -6.045720    -3.160476     2.585194 C          1 UNL1 0.000
    13 C      -5.457307    -1.898708     2.458883 C          1 UNL1 0.000
    14 O      -8.089568     5.504900     2.913321 O          1 UNL1 0.000
    15 C      -8.458387     5.997580     1.626869 C          1 UNL1 0.000
    16 O      -7.711399    -4.597105     3.337373 O          1 UNL1 0.000
    17 C      -8.610240    -4.884500     4.401280 C          1 UNL1 0.000
    18 C      -3.968421     0.556996     2.898753 C          1 UNL1 0.000
    19 C      -3.271979     0.391409     4.102483 C          1 UNL1 0.000
    20 C      -1.878236     0.375827     4.110192 C          1 UNL1 0.000
    21 C      -1.158542     0.479242     2.910830 C          1 UNL1 0.000
    22 C      -1.851370     0.633570     1.687807 C          1 UNL1 0.000
    23 C      -3.253778     0.700460     1.699657 C          1 UNL1 0.000
    24 C       0.239590     0.413314     2.902935 C          1 UNL1 0.000
    25 C       0.945786     0.448689     1.698713 C          1 UNL1 0.000
    26 C       0.277181     0.565115     0.470660 C          1 UNL1 0.000
    27 C      -1.122274     0.687001     0.485738 C          1 UNL1 0.000
    28 H      -9.127604     3.192024     2.026254 H          1 UNL1 0.000
    29 H      -7.938467     1.054000     1.966070 H          1 UNL1 0.000
    30 H      -4.469711     2.977755     3.691515 H          1 UNL1 0.000
    31 H      -5.658477     5.109130     3.680440 H          1 UNL1 0.000
    32 H      -7.750710    -0.082212     4.185091 H          1 UNL1 0.000
    33 H      -8.801219    -2.266516     4.357239 H          1 UNL1 0.000
    34 H      -5.556022    -4.027702     2.149382 H          1 UNL1 0.000
    35 H      -4.519413    -1.833447     1.913966 H          1 UNL1 0.000
    36 H      -7.594866     6.029987     0.953061 H          1 UNL1 0.000
    37 H      -8.824150     7.021013     1.755500 H          1 UNL1 0.000
    38 H      -9.267845     5.405580     1.188928 H          1 UNL1 0.000
    39 H      -8.732519    -5.971111     4.448396 H          1 UNL1 0.000
    40 H      -9.594034    -4.444984     4.211020 H          1 UNL1 0.000
    41 H      -8.208571    -4.553279     5.365085 H          1 UNL1 0.000
    42 H      -3.820837     0.284218     5.034772 H          1 UNL1 0.000
    43 H      -1.359875     0.259209     5.059024 H          1 UNL1 0.000
    44 H      -3.807161     0.818531     0.770483 H          1 UNL1 0.000
    45 H       0.792941     0.317241     3.834534 H          1 UNL1 0.000
    46 H       2.031872     0.387470     1.727341 H          1 UNL1 0.000
    47 H      -1.650396     0.794896    -0.461231 H          1 UNL1 0.000
    48 C       1.020734     0.533663    -0.793996 C          1 UNL1 0.000
    49 N       0.850188     1.598975    -1.617915 N          1 UNL1 0.000
    50 C       1.561141     1.622525    -2.774180 C          1 UNL1 0.000
    51 C       2.429808     0.609541    -3.148190 C          1 UNL1 0.000
    52 C       2.581530    -0.496570    -2.314300 C          1 UNL1 0.000
    53 C       1.865222    -0.531839    -1.118877 C          1 UNL1 0.000
    54 N       3.174737     0.717999    -4.391030 N          1 UNL1 0.000
    55 O       2.794003     1.549909    -5.221457 O          1 UNL1 0.000
    56 O       4.151305    -0.034389    -4.538187 O          1 UNL1 0.000
    57 H       1.402827     2.509641    -3.382156 H          1 UNL1 0.000
    58 H       3.241185    -1.321184    -2.573610 H          1 UNL1 0.000
    59 H       1.961079    -1.384059    -0.451469 H          1 UNL1 0.000
@<TRIPOS>BOND
     1      1      2   2
     2      2      3   1
     3      3      4   2
     4      4      5   1
     5      5      6   2
     6      6      1   1
     7      4      7   1
     8      7      8   1
     9      8      9   2
    10      9     10   1
    11     10     11   2
    12     11     12   1
    13     12     13   2
    14     13      8   1
    15     14     15   1
    16      1     14   1
    17     16     17   1
    18     11     16   1
    19     18     19   2
    20     19     20   1
    21     20     21   2
    22     21     22   1
    23     22     23   2
    24     23     18   1
    25     21     24   1
    26     24     25   2
    27     25     26   1
    28     26     27   2
    29     27     22   1
    30      7     18   1
    31      2     28   1
    32      3     29   1
    33      5     30   1
    34      6     31   1
    35      9     32   1
    36     10     33   1
    37     12     34   1
    38     13     35   1
    39     15     36   1
    40     15     37   1
    41     15     38   1
    42     17     39   1
    43     17     40   1
    44     17     41   1
    45     19     42   1
    46     20     43   1
    47     23     44   1
    48     24     45   1
    49     25     46   1
    50     27     47   1
    51     48     49   2
    52     49     50   1
    53     50     51   2
    54     51     52   1
    55     52     53   2
    56     53     48   1
    57     54     55   2
    58     54     56   1
    59     51     54   1
    60     50     57   1
    61     52     58   1
    62     53     59   1
    63     26     48   1
