# Produced with molli package
@<TRIPOS>MOLECULE
B_5_P
62 66 0 0 0
SMALL
USER_CHARGES

@<TRIPOS>ATOM
     1 C      -7.387383     4.357531     3.121728 C          1 UNL1 0.000
     2 C      -8.065281     3.231594     3.571725 C          1 UNL1 0.000
     3 C      -7.442495     1.976111     3.530040 C          1 UNL1 0.000
     4 C      -6.142128     1.817063     3.017585 C          1 UNL1 0.000
     5 C      -5.469419     2.994903     2.616912 C          1 UNL1 0.000
     6 C      -6.077394     4.252659     2.677642 C          1 UNL1 0.000
     7 N      -5.478869     0.526955     2.944289 N          1 UNL1 0.000
     8 C      -6.161988    -0.750645     2.928241 C          1 UNL1 0.000
     9 C      -7.447245    -0.909876     2.379771 C          1 UNL1 0.000
    10 C      -8.116359    -2.140216     2.429280 C          1 UNL1 0.000
    11 C      -7.501932    -3.242147     3.010706 C          1 UNL1 0.000
    12 C      -6.197668    -3.145254     3.477960 C          1 UNL1 0.000
    13 C      -5.540047    -1.910625     3.440771 C          1 UNL1 0.000
    14 O      -7.998281     5.577712     3.201738 O          1 UNL1 0.000
    15 C      -8.452826     5.985746     1.910603 C          1 UNL1 0.000
    16 O      -8.184187    -4.424519     3.034329 O          1 UNL1 0.000
    17 C      -8.468871    -4.853753     4.367051 C          1 UNL1 0.000
    18 C      -4.039004     0.521873     2.956734 C          1 UNL1 0.000
    19 C      -3.346946     0.689538     4.162912 C          1 UNL1 0.000
    20 C      -1.953488     0.729290     4.171923 C          1 UNL1 0.000
    21 C      -1.228602     0.640401     2.974277 C          1 UNL1 0.000
    22 C      -1.918204     0.484229     1.748356 C          1 UNL1 0.000
    23 C      -3.320006     0.401374     1.757296 C          1 UNL1 0.000
    24 C       0.169900     0.718674     2.969095 C          1 UNL1 0.000
    25 C       0.882288     0.667639     1.769202 C          1 UNL1 0.000
    26 C       0.215258     0.533298     0.545363 C          1 UNL1 0.000
    27 C      -1.184723     0.434684     0.549350 C          1 UNL1 0.000
    28 H      -9.074162     3.326555     3.962544 H          1 UNL1 0.000
    29 H      -7.991463     1.130479     3.933461 H          1 UNL1 0.000
    30 H      -4.447695     2.956896     2.247832 H          1 UNL1 0.000
    31 H      -5.521253     5.137643     2.383303 H          1 UNL1 0.000
    32 H      -7.947969    -0.079251     1.890096 H          1 UNL1 0.000
    33 H      -9.117184    -2.233317     2.017404 H          1 UNL1 0.000
    34 H      -5.685262    -4.018026     3.871572 H          1 UNL1 0.000
    35 H      -4.528704    -1.872249     3.836718 H          1 UNL1 0.000
    36 H      -7.623801     6.086036     1.201312 H          1 UNL1 0.000
    37 H      -8.925283     6.966983     2.015963 H          1 UNL1 0.000
    38 H      -9.202990     5.287036     1.523820 H          1 UNL1 0.000
    39 H      -8.114451    -5.882082     4.484957 H          1 UNL1 0.000
    40 H      -9.554732    -4.845589     4.503939 H          1 UNL1 0.000
    41 H      -8.018237    -4.232699     5.150528 H          1 UNL1 0.000
    42 H      -3.899436     0.784799     5.094215 H          1 UNL1 0.000
    43 H      -1.438310     0.849898     5.122330 H          1 UNL1 0.000
    44 H      -3.870172     0.284286     0.825768 H          1 UNL1 0.000
    45 H       0.719642     0.830849     3.901160 H          1 UNL1 0.000
    46 H       1.967803     0.739650     1.792311 H          1 UNL1 0.000
    47 H      -1.708818     0.326825    -0.399697 H          1 UNL1 0.000
    48 C       0.971841     0.493965    -0.707924 C          1 UNL1 0.000
    49 C       1.215820     1.667907    -1.439098 C          1 UNL1 0.000
    50 C       1.961049     1.631044    -2.621460 C          1 UNL1 0.000
    51 C       2.475419     0.417886    -3.073466 C          1 UNL1 0.000
    52 C       2.216434    -0.760445    -2.379655 C          1 UNL1 0.000
    53 C       1.476910    -0.720612    -1.195960 C          1 UNL1 0.000
    54 O       3.185158     0.327256    -4.239312 O          1 UNL1 0.000
    55 C       4.450472     0.976958    -4.120957 C          1 UNL1 0.000
    56 H       0.821899     2.619704    -1.088053 H          1 UNL1 0.000
    57 H       2.122768     2.544258    -3.185935 H          1 UNL1 0.000
    58 H       2.596413    -1.706563    -2.753619 H          1 UNL1 0.000
    59 H       1.292899    -1.644769    -0.652169 H          1 UNL1 0.000
    60 H       5.052090     0.696126    -4.990829 H          1 UNL1 0.000
    61 H       4.986446     0.651146    -3.221894 H          1 UNL1 0.000
    62 H       4.336655     2.065645    -4.126585 H          1 UNL1 0.000
@<TRIPOS>BOND
     1      1      2   2
     2      2      3   1
     3      3      4   2
     4      4      5   1
     5      5      6   2
     6      6      1   1
     7      4      7   1
     8      7      8   1
     9      8      9   2
    10      9     10   1
    11     10     11   2
    12     11     12   1
    13     12     13   2
    14     13      8   1
    15     14     15   1
    16      1     14   1
    17     16     17   1
    18     11     16   1
    19     18     19   2
    20     19     20   1
    21     20     21   2
    22     21     22   1
    23     22     23   2
    24     23     18   1
    25     21     24   1
    26     24     25   2
    27     25     26   1
    28     26     27   2
    29     27     22   1
    30      7     18   1
    31      2     28   1
    32      3     29   1
    33      5     30   1
    34      6     31   1
    35      9     32   1
    36     10     33   1
    37     12     34   1
    38     13     35   1
    39     15     36   1
    40     15     37   1
    41     15     38   1
    42     17     39   1
    43     17     40   1
    44     17     41   1
    45     19     42   1
    46     20     43   1
    47     23     44   1
    48     24     45   1
    49     25     46   1
    50     27     47   1
    51     48     49   2
    52     49     50   1
    53     50     51   2
    54     51     52   1
    55     52     53   2
    56     53     48   1
    57     54     55   1
    58     51     54   1
    59     49     56   1
    60     50     57   1
    61     52     58   1
    62     53     59   1
    63     55     60   1
    64     55     61   1
    65     55     62   1
    66     26     48   1
