# Produced with molli package
@<TRIPOS>MOLECULE
B_5_O
57 61 0 0 0
SMALL
USER_CHARGES

@<TRIPOS>ATOM
     1 C      -7.478638     4.226460     3.422734 C          1 UNL1 0.000
     2 C      -8.065844     3.090591     3.966660 C          1 UNL1 0.000
     3 C      -7.407709     1.859118     3.882676 C          1 UNL1 0.000
     4 C      -6.153340     1.740981     3.254503 C          1 UNL1 0.000
     5 C      -5.556730     2.922947     2.772006 C          1 UNL1 0.000
     6 C      -6.210532     4.156244     2.856955 C          1 UNL1 0.000
     7 N      -5.484177     0.464765     3.130367 N          1 UNL1 0.000
     8 C      -6.199481    -0.786146     3.048103 C          1 UNL1 0.000
     9 C      -7.432394    -0.883383     2.380265 C          1 UNL1 0.000
    10 C      -8.156249    -2.080598     2.365843 C          1 UNL1 0.000
    11 C      -7.664823    -3.208143     3.018382 C          1 UNL1 0.000
    12 C      -6.410515    -3.157413     3.620076 C          1 UNL1 0.000
    13 C      -5.685296    -1.959098     3.630109 C          1 UNL1 0.000
    14 O      -8.153703     5.411386     3.523975 O          1 UNL1 0.000
    15 C      -8.539577     5.885962     2.233294 C          1 UNL1 0.000
    16 O      -8.467140    -4.315053     2.982916 O          1 UNL1 0.000
    17 C      -8.391939    -5.138324     4.143909 C          1 UNL1 0.000
    18 C      -4.048340     0.440723     3.134921 C          1 UNL1 0.000
    19 C      -3.343545     0.583893     4.335903 C          1 UNL1 0.000
    20 C      -1.948175     0.572243     4.338343 C          1 UNL1 0.000
    21 C      -1.232380     0.460760     3.136344 C          1 UNL1 0.000
    22 C      -1.934981     0.346959     1.915041 C          1 UNL1 0.000
    23 C      -3.338899     0.309159     1.931566 C          1 UNL1 0.000
    24 C       0.169213     0.480841     3.121913 C          1 UNL1 0.000
    25 C       0.870376     0.420505     1.914699 C          1 UNL1 0.000
    26 C       0.189858     0.341232     0.692462 C          1 UNL1 0.000
    27 C      -1.213620     0.297308     0.708986 C          1 UNL1 0.000
    28 H      -9.036453     3.157493     4.449354 H          1 UNL1 0.000
    29 H      -7.885125     0.991611     4.331192 H          1 UNL1 0.000
    30 H      -4.575152     2.899817     2.305490 H          1 UNL1 0.000
    31 H      -5.719388     5.050164     2.484843 H          1 UNL1 0.000
    32 H      -7.845493    -0.022950     1.859623 H          1 UNL1 0.000
    33 H      -9.117153    -2.124291     1.859949 H          1 UNL1 0.000
    34 H      -5.970111    -4.032788     4.085823 H          1 UNL1 0.000
    35 H      -4.720459    -1.951473     4.130202 H          1 UNL1 0.000
    36 H      -7.670552     6.191628     1.641445 H          1 UNL1 0.000
    37 H      -9.174194     6.765661     2.375895 H          1 UNL1 0.000
    38 H      -9.123715     5.131399     1.693790 H          1 UNL1 0.000
    39 H      -7.488920    -5.756141     4.125597 H          1 UNL1 0.000
    40 H      -9.256592    -5.808927     4.134737 H          1 UNL1 0.000
    41 H      -8.441521    -4.545038     5.064422 H          1 UNL1 0.000
    42 H      -3.885929     0.693796     5.271532 H          1 UNL1 0.000
    43 H      -1.423923     0.671272     5.285961 H          1 UNL1 0.000
    44 H      -3.896024     0.216700     1.001829 H          1 UNL1 0.000
    45 H       0.729361     0.565013     4.050375 H          1 UNL1 0.000
    46 H       1.957462     0.467671     1.929573 H          1 UNL1 0.000
    47 H      -1.746888     0.246388    -0.239454 H          1 UNL1 0.000
    48 C       0.925298     0.331281    -0.573102 C          1 UNL1 0.000
    49 N       0.900992     1.491957    -1.273186 N          1 UNL1 0.000
    50 C       1.596818     1.533464    -2.430064 C          1 UNL1 0.000
    51 C       2.313432     0.463063    -2.937206 C          1 UNL1 0.000
    52 C       2.318678    -0.723900    -2.214737 C          1 UNL1 0.000
    53 C       1.618640    -0.793593    -1.012820 C          1 UNL1 0.000
    54 H       1.563455     2.484197    -2.954509 H          1 UNL1 0.000
    55 H       2.853981     0.553055    -3.872653 H          1 UNL1 0.000
    56 H       2.864889    -1.588026    -2.581539 H          1 UNL1 0.000
    57 H       1.611403    -1.710203    -0.432168 H          1 UNL1 0.000
@<TRIPOS>BOND
     1      1      2   2
     2      2      3   1
     3      3      4   2
     4      4      5   1
     5      5      6   2
     6      6      1   1
     7      4      7   1
     8      7      8   1
     9      8      9   2
    10      9     10   1
    11     10     11   2
    12     11     12   1
    13     12     13   2
    14     13      8   1
    15     14     15   1
    16      1     14   1
    17     16     17   1
    18     11     16   1
    19     18     19   2
    20     19     20   1
    21     20     21   2
    22     21     22   1
    23     22     23   2
    24     23     18   1
    25     21     24   1
    26     24     25   2
    27     25     26   1
    28     26     27   2
    29     27     22   1
    30      7     18   1
    31      2     28   1
    32      3     29   1
    33      5     30   1
    34      6     31   1
    35      9     32   1
    36     10     33   1
    37     12     34   1
    38     13     35   1
    39     15     36   1
    40     15     37   1
    41     15     38   1
    42     17     39   1
    43     17     40   1
    44     17     41   1
    45     19     42   1
    46     20     43   1
    47     23     44   1
    48     24     45   1
    49     25     46   1
    50     27     47   1
    51     48     49   2
    52     49     50   1
    53     50     51   2
    54     51     52   1
    55     52     53   2
    56     53     48   1
    57     50     54   1
    58     51     55   1
    59     52     56   1
    60     53     57   1
    61     26     48   1
