# Produced with molli package
@<TRIPOS>MOLECULE
B_5_S
63 67 0 0 0
SMALL
USER_CHARGES

@<TRIPOS>ATOM
     1 C      -7.456523     4.353621     3.164349 C          1 UNL1 0.000
     2 C      -8.092218     3.210458     3.631753 C          1 UNL1 0.000
     3 C      -7.437973     1.971391     3.574054 C          1 UNL1 0.000
     4 C      -6.148218     1.844574     3.027091 C          1 UNL1 0.000
     5 C      -5.513009     3.039541     2.618963 C          1 UNL1 0.000
     6 C      -6.152354     4.281473     2.695245 C          1 UNL1 0.000
     7 N      -5.459688     0.571419     2.923361 N          1 UNL1 0.000
     8 C      -6.111489    -0.725416     2.889073 C          1 UNL1 0.000
     9 C      -7.420415    -0.906639     2.405849 C          1 UNL1 0.000
    10 C      -8.045170    -2.162751     2.432688 C          1 UNL1 0.000
    11 C      -7.356577    -3.267655     2.916885 C          1 UNL1 0.000
    12 C      -6.034489    -3.145500     3.318088 C          1 UNL1 0.000
    13 C      -5.425664    -1.887566     3.311024 C          1 UNL1 0.000
    14 O      -8.107311     5.552283     3.256877 O          1 UNL1 0.000
    15 C      -8.487942     6.017626     1.960961 C          1 UNL1 0.000
    16 O      -7.957264    -4.494759     2.916474 O          1 UNL1 0.000
    17 C      -8.444796    -4.810559     4.221941 C          1 UNL1 0.000
    18 C      -4.018903     0.591055     2.936540 C          1 UNL1 0.000
    19 C      -3.331294     0.692181     4.152347 C          1 UNL1 0.000
    20 C      -1.937785     0.651032     4.174382 C          1 UNL1 0.000
    21 C      -1.206718     0.548357     2.980957 C          1 UNL1 0.000
    22 C      -1.889388     0.489417     1.744027 C          1 UNL1 0.000
    23 C      -3.294512     0.488923     1.737972 C          1 UNL1 0.000
    24 C       0.193556     0.510109     2.993729 C          1 UNL1 0.000
    25 C       0.916163     0.446996     1.800085 C          1 UNL1 0.000
    26 C       0.259431     0.427313     0.563290 C          1 UNL1 0.000
    27 C      -1.145031     0.438432     0.550403 C          1 UNL1 0.000
    28 H      -9.094203     3.278627     4.045706 H          1 UNL1 0.000
    29 H      -7.954424     1.112243     3.991604 H          1 UNL1 0.000
    30 H      -4.498511     3.027113     2.229008 H          1 UNL1 0.000
    31 H      -5.622882     5.180363     2.393803 H          1 UNL1 0.000
    32 H      -7.975521    -0.075826     1.979539 H          1 UNL1 0.000
    33 H      -9.062526    -2.273579     2.069041 H          1 UNL1 0.000
    34 H      -5.473584    -4.018202     3.638932 H          1 UNL1 0.000
    35 H      -4.395560    -1.837816     3.653088 H          1 UNL1 0.000
    36 H      -7.621272     6.167228     1.307885 H          1 UNL1 0.000
    37 H      -8.984259     6.984981     2.083998 H          1 UNL1 0.000
    38 H      -9.200094     5.326736     1.496136 H          1 UNL1 0.000
    39 H      -8.575876    -5.895478     4.278917 H          1 UNL1 0.000
    40 H      -9.419966    -4.337732     4.376745 H          1 UNL1 0.000
    41 H      -7.754605    -4.514752     5.021004 H          1 UNL1 0.000
    42 H      -3.887414     0.771791     5.083073 H          1 UNL1 0.000
    43 H      -1.426846     0.703284     5.133033 H          1 UNL1 0.000
    44 H      -3.841099     0.423320     0.799644 H          1 UNL1 0.000
    45 H       0.737480     0.539468     3.935248 H          1 UNL1 0.000
    46 H       2.003620     0.435496     1.840775 H          1 UNL1 0.000
    47 H      -1.665377     0.413748    -0.406204 H          1 UNL1 0.000
    48 C       1.030102     0.420579    -0.684368 C          1 UNL1 0.000
    49 C       1.114267     1.573223    -1.476813 C          1 UNL1 0.000
    50 C       1.873659     1.580302    -2.651257 C          1 UNL1 0.000
    51 C       2.564362     0.432523    -3.062964 C          1 UNL1 0.000
    52 C       2.491235    -0.720152    -2.273985 C          1 UNL1 0.000
    53 C       1.727359    -0.723588    -1.098334 C          1 UNL1 0.000
    54 C       3.357834     0.507781    -4.327862 C          1 UNL1 0.000
    55 C       4.026939    -0.723813    -4.880747 C          1 UNL1 0.000
    56 O       3.480865     1.590812    -4.901820 O          1 UNL1 0.000
    57 H       0.599141     2.483607    -1.174817 H          1 UNL1 0.000
    58 H       1.927072     2.494493    -3.240748 H          1 UNL1 0.000
    59 H       3.020895    -1.630364    -2.535569 H          1 UNL1 0.000
    60 H       1.679264    -1.631940    -0.499471 H          1 UNL1 0.000
    61 H       4.012943    -0.666676    -5.974097 H          1 UNL1 0.000
    62 H       3.505865    -1.643264    -4.611563 H          1 UNL1 0.000
    63 H       5.062783    -0.760807    -4.534250 H          1 UNL1 0.000
@<TRIPOS>BOND
     1      1      2   2
     2      2      3   1
     3      3      4   2
     4      4      5   1
     5      5      6   2
     6      6      1   1
     7      4      7   1
     8      7      8   1
     9      8      9   2
    10      9     10   1
    11     10     11   2
    12     11     12   1
    13     12     13   2
    14     13      8   1
    15     14     15   1
    16      1     14   1
    17     16     17   1
    18     11     16   1
    19     18     19   2
    20     19     20   1
    21     20     21   2
    22     21     22   1
    23     22     23   2
    24     23     18   1
    25     21     24   1
    26     24     25   2
    27     25     26   1
    28     26     27   2
    29     27     22   1
    30      7     18   1
    31      2     28   1
    32      3     29   1
    33      5     30   1
    34      6     31   1
    35      9     32   1
    36     10     33   1
    37     12     34   1
    38     13     35   1
    39     15     36   1
    40     15     37   1
    41     15     38   1
    42     17     39   1
    43     17     40   1
    44     17     41   1
    45     19     42   1
    46     20     43   1
    47     23     44   1
    48     24     45   1
    49     25     46   1
    50     27     47   1
    51     48     49   2
    52     49     50   1
    53     50     51   2
    54     51     52   1
    55     52     53   2
    56     53     48   1
    57     51     54   1
    58     54     55   1
    59     54     56   2
    60     49     57   1
    61     50     58   1
    62     52     59   1
    63     53     60   1
    64     55     61   1
    65     55     62   1
    66     55     63   1
    67     26     48   1
