# Produced with molli package
@<TRIPOS>MOLECULE
B_5_K
60 64 0 0 0
SMALL
USER_CHARGES

@<TRIPOS>ATOM
     1 C      -7.502846     4.305578     3.155773 C          1 UNL1 0.000
     2 C      -8.087929     3.177733     3.719620 C          1 UNL1 0.000
     3 C      -7.421616     1.945414     3.679068 C          1 UNL1 0.000
     4 C      -6.164573     1.812574     3.063748 C          1 UNL1 0.000
     5 C      -5.573094     2.991457     2.558797 C          1 UNL1 0.000
     6 C      -6.228948     4.226081     2.608523 C          1 UNL1 0.000
     7 N      -5.467137     0.545190     2.985772 N          1 UNL1 0.000
     8 C      -6.116419    -0.751425     2.955181 C          1 UNL1 0.000
     9 C      -7.427421    -0.929814     2.474950 C          1 UNL1 0.000
    10 C      -8.046017    -2.188581     2.483090 C          1 UNL1 0.000
    11 C      -7.350646    -3.296509     2.950974 C          1 UNL1 0.000
    12 C      -6.032171    -3.172841     3.363978 C          1 UNL1 0.000
    13 C      -5.427909    -1.912725     3.372834 C          1 UNL1 0.000
    14 O      -8.185628     5.487865     3.231306 O          1 UNL1 0.000
    15 C      -8.488983     5.994729     1.931006 C          1 UNL1 0.000
    16 O      -7.932982    -4.532219     2.928323 O          1 UNL1 0.000
    17 C      -8.553249    -4.808884     4.184909 C          1 UNL1 0.000
    18 C      -4.028084     0.576830     2.989386 C          1 UNL1 0.000
    19 C      -3.332846     0.713102     4.197096 C          1 UNL1 0.000
    20 C      -1.938441     0.702539     4.207961 C          1 UNL1 0.000
    21 C      -1.215693     0.596430     3.009884 C          1 UNL1 0.000
    22 C      -1.908747     0.494107     1.781430 C          1 UNL1 0.000
    23 C      -3.312198     0.461184     1.787629 C          1 UNL1 0.000
    24 C       0.185231     0.598593     3.008186 C          1 UNL1 0.000
    25 C       0.895986     0.533398     1.807821 C          1 UNL1 0.000
    26 C       0.224966     0.466840     0.580633 C          1 UNL1 0.000
    27 C      -1.177963     0.436477     0.581317 C          1 UNL1 0.000
    28 H      -9.063930     3.253156     4.190691 H          1 UNL1 0.000
    29 H      -7.897360     1.095304     4.159803 H          1 UNL1 0.000
    30 H      -4.584132     2.969346     2.108557 H          1 UNL1 0.000
    31 H      -5.729607     5.112498     2.229483 H          1 UNL1 0.000
    32 H      -7.986160    -0.094287     2.062447 H          1 UNL1 0.000
    33 H      -9.061064    -2.299374     2.113275 H          1 UNL1 0.000
    34 H      -5.471469    -4.047256     3.680528 H          1 UNL1 0.000
    35 H      -4.399939    -1.859491     3.721058 H          1 UNL1 0.000
    36 H      -7.586951     6.326717     1.406710 H          1 UNL1 0.000
    37 H      -9.142070     6.863892     2.054447 H          1 UNL1 0.000
    38 H      -9.027173     5.249659     1.333868 H          1 UNL1 0.000
    39 H      -8.676649    -5.893135     4.266952 H          1 UNL1 0.000
    40 H      -9.544787    -4.346365     4.220227 H          1 UNL1 0.000
    41 H      -7.951399    -4.474765     5.038556 H          1 UNL1 0.000
    42 H      -3.882726     0.800674     5.130800 H          1 UNL1 0.000
    43 H      -1.420650     0.784769     5.160846 H          1 UNL1 0.000
    44 H      -3.865528     0.365468     0.855864 H          1 UNL1 0.000
    45 H       0.737948     0.661001     3.942996 H          1 UNL1 0.000
    46 H       1.983791     0.549899     1.835397 H          1 UNL1 0.000
    47 H      -1.707353     0.376781    -0.368634 H          1 UNL1 0.000
    48 C       0.979833     0.447986    -0.674294 C          1 UNL1 0.000
    49 C       1.186350     1.636005    -1.397246 C          1 UNL1 0.000
    50 C       1.937987     1.636332    -2.575010 C          1 UNL1 0.000
    51 C       2.479100     0.432619    -3.037788 C          1 UNL1 0.000
    52 C       2.276821    -0.764187    -2.342709 C          1 UNL1 0.000
    53 C       1.530789    -0.749016    -1.161165 C          1 UNL1 0.000
    54 N       3.275801     0.427487    -4.262549 N          1 UNL1 0.000
    55 O       3.900986     1.459263    -4.542382 O          1 UNL1 0.000
    56 O       3.275510    -0.610491    -4.940208 O          1 UNL1 0.000
    57 H       0.767846     2.573306    -1.032543 H          1 UNL1 0.000
    58 H       2.092404     2.568969    -3.113278 H          1 UNL1 0.000
    59 H       2.697613    -1.701869    -2.699311 H          1 UNL1 0.000
    60 H       1.380616    -1.678079    -0.612972 H          1 UNL1 0.000
@<TRIPOS>BOND
     1      1      2   2
     2      2      3   1
     3      3      4   2
     4      4      5   1
     5      5      6   2
     6      6      1   1
     7      4      7   1
     8      7      8   1
     9      8      9   2
    10      9     10   1
    11     10     11   2
    12     11     12   1
    13     12     13   2
    14     13      8   1
    15     14     15   1
    16      1     14   1
    17     16     17   1
    18     11     16   1
    19     18     19   2
    20     19     20   1
    21     20     21   2
    22     21     22   1
    23     22     23   2
    24     23     18   1
    25     21     24   1
    26     24     25   2
    27     25     26   1
    28     26     27   2
    29     27     22   1
    30      7     18   1
    31      2     28   1
    32      3     29   1
    33      5     30   1
    34      6     31   1
    35      9     32   1
    36     10     33   1
    37     12     34   1
    38     13     35   1
    39     15     36   1
    40     15     37   1
    41     15     38   1
    42     17     39   1
    43     17     40   1
    44     17     41   1
    45     19     42   1
    46     20     43   1
    47     23     44   1
    48     24     45   1
    49     25     46   1
    50     27     47   1
    51     48     49   2
    52     49     50   1
    53     50     51   2
    54     51     52   1
    55     52     53   2
    56     53     48   1
    57     54     55   2
    58     54     56   1
    59     51     54   1
    60     49     57   1
    61     50     58   1
    62     52     59   1
    63     53     60   1
    64     26     48   1
