# Produced with molli package
@<TRIPOS>MOLECULE
B_5_M
59 63 0 0 0
SMALL
USER_CHARGES

@<TRIPOS>ATOM
     1 C      -7.333488     4.352131     3.136645 C          1 UNL1 0.000
     2 C      -7.985159     3.237007     3.647531 C          1 UNL1 0.000
     3 C      -7.357877     1.982839     3.615931 C          1 UNL1 0.000
     4 C      -6.085133     1.810602     3.043687 C          1 UNL1 0.000
     5 C      -5.430004     2.982556     2.597295 C          1 UNL1 0.000
     6 C      -6.038878     4.240567     2.651843 C          1 UNL1 0.000
     7 N      -5.426920     0.518424     2.948586 N          1 UNL1 0.000
     8 C      -6.103197    -0.767962     2.930548 C          1 UNL1 0.000
     9 C      -7.448426    -0.921923     2.545169 C          1 UNL1 0.000
    10 C      -8.093456    -2.168270     2.594615 C          1 UNL1 0.000
    11 C      -7.386374    -3.296584     2.988509 C          1 UNL1 0.000
    12 C      -6.036168    -3.202589     3.288601 C          1 UNL1 0.000
    13 C      -5.408814    -1.952298     3.270104 C          1 UNL1 0.000
    14 O      -7.954858     5.568316     3.193724 O          1 UNL1 0.000
    15 C      -8.428758     5.939960     1.897962 C          1 UNL1 0.000
    16 O      -7.982479    -4.525577     2.996580 O          1 UNL1 0.000
    17 C      -8.625394    -4.761711     4.249897 C          1 UNL1 0.000
    18 C      -3.984427     0.520714     2.951886 C          1 UNL1 0.000
    19 C      -3.290876     0.645747     4.162082 C          1 UNL1 0.000
    20 C      -1.896860     0.659322     4.173266 C          1 UNL1 0.000
    21 C      -1.171556     0.582557     2.974786 C          1 UNL1 0.000
    22 C      -1.859625     0.474564     1.743642 C          1 UNL1 0.000
    23 C      -3.265012     0.421857     1.749013 C          1 UNL1 0.000
    24 C       0.228651     0.622539     2.978607 C          1 UNL1 0.000
    25 C       0.946247     0.579400     1.781720 C          1 UNL1 0.000
    26 C       0.283850     0.495485     0.550932 C          1 UNL1 0.000
    27 C      -1.119498     0.436414     0.545820 C          1 UNL1 0.000
    28 H      -8.978467     3.339115     4.074995 H          1 UNL1 0.000
    29 H      -7.882693     1.149880     4.073567 H          1 UNL1 0.000
    30 H      -4.422542     2.939618     2.191830 H          1 UNL1 0.000
    31 H      -5.496627     5.119880     2.317226 H          1 UNL1 0.000
    32 H      -8.023069    -0.078349     2.174552 H          1 UNL1 0.000
    33 H      -9.137713    -2.252147     2.308142 H          1 UNL1 0.000
    34 H      -5.467993    -4.093033     3.540818 H          1 UNL1 0.000
    35 H      -4.354460    -1.928833     3.532377 H          1 UNL1 0.000
    36 H      -7.606985     6.048924     1.181543 H          1 UNL1 0.000
    37 H      -8.926736     6.910094     1.987623 H          1 UNL1 0.000
    38 H      -9.162411     5.214655     1.528410 H          1 UNL1 0.000
    39 H      -8.694343    -5.844823     4.392362 H          1 UNL1 0.000
    40 H      -9.640625    -4.353240     4.229352 H          1 UNL1 0.000
    41 H      -8.069404    -4.346970     5.099376 H          1 UNL1 0.000
    42 H      -3.842124     0.720457     5.096097 H          1 UNL1 0.000
    43 H      -1.381303     0.743354     5.127228 H          1 UNL1 0.000
    44 H      -3.816042     0.334299     0.815081 H          1 UNL1 0.000
    45 H       0.776024     0.697924     3.915623 H          1 UNL1 0.000
    46 H       2.033207     0.624231     1.814667 H          1 UNL1 0.000
    47 H      -1.642401     0.365777    -0.406993 H          1 UNL1 0.000
    48 C       1.051976     0.478781    -0.697245 C          1 UNL1 0.000
    49 C       1.211149     1.647696    -1.457513 C          1 UNL1 0.000
    50 C       1.978858     1.642236    -2.627109 C          1 UNL1 0.000
    51 C       2.596345     0.463356    -3.054828 C          1 UNL1 0.000
    52 C       2.440238    -0.708426    -2.308972 C          1 UNL1 0.000
    53 C       1.674428    -0.698515    -1.138625 C          1 UNL1 0.000
    54 C       3.389996     0.456824    -4.248468 C          1 UNL1 0.000
    55 N       4.034745     0.451389    -5.214217 N          1 UNL1 0.000
    56 H       0.746408     2.576756    -1.130896 H          1 UNL1 0.000
    57 H       2.094694     2.564277    -3.193995 H          1 UNL1 0.000
    58 H       2.915104    -1.634554    -2.627582 H          1 UNL1 0.000
    59 H       1.567082    -1.617688    -0.564825 H          1 UNL1 0.000
@<TRIPOS>BOND
     1      1      2   2
     2      2      3   1
     3      3      4   2
     4      4      5   1
     5      5      6   2
     6      6      1   1
     7      4      7   1
     8      7      8   1
     9      8      9   2
    10      9     10   1
    11     10     11   2
    12     11     12   1
    13     12     13   2
    14     13      8   1
    15     14     15   1
    16      1     14   1
    17     16     17   1
    18     11     16   1
    19     18     19   2
    20     19     20   1
    21     20     21   2
    22     21     22   1
    23     22     23   2
    24     23     18   1
    25     21     24   1
    26     24     25   2
    27     25     26   1
    28     26     27   2
    29     27     22   1
    30      7     18   1
    31      2     28   1
    32      3     29   1
    33      5     30   1
    34      6     31   1
    35      9     32   1
    36     10     33   1
    37     12     34   1
    38     13     35   1
    39     15     36   1
    40     15     37   1
    41     15     38   1
    42     17     39   1
    43     17     40   1
    44     17     41   1
    45     19     42   1
    46     20     43   1
    47     23     44   1
    48     24     45   1
    49     25     46   1
    50     27     47   1
    51     48     49   2
    52     49     50   1
    53     50     51   2
    54     51     52   1
    55     52     53   2
    56     53     48   1
    57     54     55   3
    58     51     54   1
    59     49     56   1
    60     50     57   1
    61     52     58   1
    62     53     59   1
    63     26     48   1
