# Produced with molli package
@<TRIPOS>MOLECULE
B_5_L
62 67 0 0 0
SMALL
USER_CHARGES

@<TRIPOS>ATOM
     1 C      -7.373404     4.409105     2.765023 C          1 UNL1 0.000
     2 C      -7.989160     3.284313     2.220618 C          1 UNL1 0.000
     3 C      -7.350560     2.034851     2.271165 C          1 UNL1 0.000
     4 C      -6.093477     1.877905     2.879387 C          1 UNL1 0.000
     5 C      -5.492822     3.030510     3.419265 C          1 UNL1 0.000
     6 C      -6.130077     4.274124     3.374993 C          1 UNL1 0.000
     7 N      -5.421531     0.601290     2.924289 N          1 UNL1 0.000
     8 C      -6.107608    -0.666802     3.023204 C          1 UNL1 0.000
     9 C      -7.330451    -0.805117     3.700805 C          1 UNL1 0.000
    10 C      -7.956794    -2.055404     3.831898 C          1 UNL1 0.000
    11 C      -7.361927    -3.198462     3.301677 C          1 UNL1 0.000
    12 C      -6.160425    -3.078876     2.610094 C          1 UNL1 0.000
    13 C      -5.537617    -1.834341     2.480685 C          1 UNL1 0.000
    14 O      -7.894306     5.672557     2.785841 O          1 UNL1 0.000
    15 C      -8.824017     5.975059     1.752747 C          1 UNL1 0.000
    16 O      -7.855140    -4.470448     3.381867 O          1 UNL1 0.000
    17 C      -8.791796    -4.714677     4.423724 C          1 UNL1 0.000
    18 C      -3.983640     0.584773     2.938051 C          1 UNL1 0.000
    19 C      -3.294379     0.372107     4.138557 C          1 UNL1 0.000
    20 C      -1.900751     0.333941     4.150071 C          1 UNL1 0.000
    21 C      -1.173239     0.461134     2.957891 C          1 UNL1 0.000
    22 C      -1.860787     0.656178     1.736361 C          1 UNL1 0.000
    23 C      -3.261434     0.745504     1.746110 C          1 UNL1 0.000
    24 C       0.224237     0.376067     2.950864 C          1 UNL1 0.000
    25 C       0.935186     0.437113     1.750726 C          1 UNL1 0.000
    26 C       0.269647     0.595665     0.527723 C          1 UNL1 0.000
    27 C      -1.127903     0.725555     0.538494 C          1 UNL1 0.000
    28 H      -8.968300     3.342508     1.757147 H          1 UNL1 0.000
    29 H      -7.844991     1.184990     1.806826 H          1 UNL1 0.000
    30 H      -4.519884     2.978620     3.900605 H          1 UNL1 0.000
    31 H      -5.642995     5.143152     3.810077 H          1 UNL1 0.000
    32 H      -7.800947     0.056538     4.167746 H          1 UNL1 0.000
    33 H      -8.905371    -2.102124     4.356524 H          1 UNL1 0.000
    34 H      -5.690856    -3.961169     2.182358 H          1 UNL1 0.000
    35 H      -4.594746    -1.794449     1.941383 H          1 UNL1 0.000
    36 H      -8.420618     5.720152     0.766667 H          1 UNL1 0.000
    37 H      -9.001127     7.054928     1.771208 H          1 UNL1 0.000
    38 H      -9.782471     5.477327     1.928140 H          1 UNL1 0.000
    39 H      -8.892365    -5.799019     4.532943 H          1 UNL1 0.000
    40 H      -9.773761    -4.309397     4.161625 H          1 UNL1 0.000
    41 H      -8.444166    -4.317426     5.383729 H          1 UNL1 0.000
    42 H      -3.848156     0.246646     5.065349 H          1 UNL1 0.000
    43 H      -1.387459     0.180298     5.096855 H          1 UNL1 0.000
    44 H      -3.808930     0.895700     0.817763 H          1 UNL1 0.000
    45 H       0.774099     0.240149     3.879749 H          1 UNL1 0.000
    46 H       2.019707     0.349146     1.771858 H          1 UNL1 0.000
    47 H      -1.654371     0.844847    -0.407906 H          1 UNL1 0.000
    48 C       1.020983     0.586430    -0.732832 C          1 UNL1 0.000
    49 C       1.141818     1.745978    -1.510473 C          1 UNL1 0.000
    50 C       1.872943     1.760674    -2.705681 C          1 UNL1 0.000
    51 C       2.481693     0.567025    -3.106995 C          1 UNL1 0.000
    52 C       2.380238    -0.612147    -2.371094 C          1 UNL1 0.000
    53 C       1.641733    -0.599589    -1.171995 C          1 UNL1 0.000
    54 N       3.253992     0.287568    -4.212195 N          1 UNL1 0.000
    55 C       3.637604    -1.027681    -4.202048 C          1 UNL1 0.000
    56 C       3.108385    -1.611283    -3.073809 C          1 UNL1 0.000
    57 H       0.668869     2.668549    -1.177229 H          1 UNL1 0.000
    58 H       1.962936     2.670359    -3.289958 H          1 UNL1 0.000
    59 H       1.551196    -1.512884    -0.589350 H          1 UNL1 0.000
    60 H       3.499501     0.960959    -4.924391 H          1 UNL1 0.000
    61 H       4.251600    -1.433214    -4.994774 H          1 UNL1 0.000
    62 H       3.231940    -2.645465    -2.780288 H          1 UNL1 0.000
@<TRIPOS>BOND
     1      1      2   2
     2      2      3   1
     3      3      4   2
     4      4      5   1
     5      5      6   2
     6      6      1   1
     7      4      7   1
     8      7      8   1
     9      8      9   2
    10      9     10   1
    11     10     11   2
    12     11     12   1
    13     12     13   2
    14     13      8   1
    15     14     15   1
    16      1     14   1
    17     16     17   1
    18     11     16   1
    19     18     19   2
    20     19     20   1
    21     20     21   2
    22     21     22   1
    23     22     23   2
    24     23     18   1
    25     21     24   1
    26     24     25   2
    27     25     26   1
    28     26     27   2
    29     27     22   1
    30      7     18   1
    31      2     28   1
    32      3     29   1
    33      5     30   1
    34      6     31   1
    35      9     32   1
    36     10     33   1
    37     12     34   1
    38     13     35   1
    39     15     36   1
    40     15     37   1
    41     15     38   1
    42     17     39   1
    43     17     40   1
    44     17     41   1
    45     19     42   1
    46     20     43   1
    47     23     44   1
    48     24     45   1
    49     25     46   1
    50     27     47   1
    51     48     49   2
    52     49     50   1
    53     50     51   2
    54     51     52   1
    55     52     53   2
    56     53     48   1
    57     51     54   1
    58     54     55   1
    59     55     56   2
    60     56     52   1
    61     49     57   1
    62     50     58   1
    63     53     59   1
    64     54     60   1
    65     55     61   1
    66     56     62   1
    67     26     48   1
