# Produced with molli package
@<TRIPOS>MOLECULE
B_5_Q
56 60 0 0 0
SMALL
USER_CHARGES

@<TRIPOS>ATOM
     1 C      -7.499640     4.292253     2.905087 C          1 UNL1 0.000
     2 C      -8.099093     3.158387     2.362477 C          1 UNL1 0.000
     3 C      -7.428157     1.926709     2.392529 C          1 UNL1 0.000
     4 C      -6.159686     1.798316     2.985329 C          1 UNL1 0.000
     5 C      -5.577508     2.964702     3.519792 C          1 UNL1 0.000
     6 C      -6.245637     4.192220     3.495209 C          1 UNL1 0.000
     7 N      -5.460401     0.535255     3.027072 N          1 UNL1 0.000
     8 C      -6.118244    -0.748141     3.132102 C          1 UNL1 0.000
     9 C      -7.343281    -0.910169     3.800994 C          1 UNL1 0.000
    10 C      -7.946490    -2.172029     3.928693 C          1 UNL1 0.000
    11 C      -7.324634    -3.303579     3.405381 C          1 UNL1 0.000
    12 C      -6.118701    -3.163266     2.726477 C          1 UNL1 0.000
    13 C      -5.518856    -1.906847     2.601191 C          1 UNL1 0.000
    14 O      -8.096758     5.520973     2.957401 O          1 UNL1 0.000
    15 C      -8.654265     5.933197     1.712801 C          1 UNL1 0.000
    16 O      -7.806048    -4.580881     3.474998 O          1 UNL1 0.000
    17 C      -8.652318    -4.859460     4.584227 C          1 UNL1 0.000
    18 C      -4.022518     0.550933     3.037243 C          1 UNL1 0.000
    19 C      -3.325422     0.369394     4.238289 C          1 UNL1 0.000
    20 C      -1.931151     0.363329     4.246410 C          1 UNL1 0.000
    21 C      -1.210310     0.490395     3.049980 C          1 UNL1 0.000
    22 C      -1.905416     0.657365     1.829217 C          1 UNL1 0.000
    23 C      -3.307601     0.715449     1.841515 C          1 UNL1 0.000
    24 C       0.188924     0.436148     3.039260 C          1 UNL1 0.000
    25 C       0.894755     0.493375     1.835251 C          1 UNL1 0.000
    26 C       0.221837     0.621324     0.611520 C          1 UNL1 0.000
    27 C      -1.178069     0.732358     0.628586 C          1 UNL1 0.000
    28 H      -9.092850     3.204154     1.928977 H          1 UNL1 0.000
    29 H      -7.909475     1.067086     1.932751 H          1 UNL1 0.000
    30 H      -4.596678     2.934542     3.986689 H          1 UNL1 0.000
    31 H      -5.778252     5.070763     3.931661 H          1 UNL1 0.000
    32 H      -7.836877    -0.057526     4.260530 H          1 UNL1 0.000
    33 H      -8.901512    -2.237244     4.439551 H          1 UNL1 0.000
    34 H      -5.628911    -4.037498     2.305160 H          1 UNL1 0.000
    35 H      -4.571426    -1.850635     2.071756 H          1 UNL1 0.000
    36 H      -7.934844     5.814856     0.894787 H          1 UNL1 0.000
    37 H      -8.896747     6.997328     1.794613 H          1 UNL1 0.000
    38 H      -9.582515     5.396147     1.496952 H          1 UNL1 0.000
    39 H      -8.751938    -5.946641     4.661446 H          1 UNL1 0.000
    40 H      -9.650935    -4.441411     4.425909 H          1 UNL1 0.000
    41 H      -8.217843    -4.498614     5.523107 H          1 UNL1 0.000
    42 H      -3.873991     0.244944     5.168440 H          1 UNL1 0.000
    43 H      -1.412434     0.236182     5.194043 H          1 UNL1 0.000
    44 H      -3.860923     0.844416     0.913495 H          1 UNL1 0.000
    45 H       0.743750     0.331860     3.969443 H          1 UNL1 0.000
    46 H       1.981597     0.439236     1.859652 H          1 UNL1 0.000
    47 H      -1.707393     0.848996    -0.317083 H          1 UNL1 0.000
    48 C       0.956900     0.605960    -0.653234 C          1 UNL1 0.000
    49 N       0.909191     1.735651    -1.403287 N          1 UNL1 0.000
    50 C       1.614803     1.704739    -2.558277 C          1 UNL1 0.000
    51 C       2.330022     0.591638    -2.967833 C          1 UNL1 0.000
    52 N       2.375409    -0.545985    -2.241397 N          1 UNL1 0.000
    53 C       1.675540    -0.510881    -1.080281 C          1 UNL1 0.000
    54 H       1.592489     2.611669    -3.151536 H          1 UNL1 0.000
    55 H       2.888924     0.585928    -3.896545 H          1 UNL1 0.000
    56 H       1.700258    -1.424709    -0.495304 H          1 UNL1 0.000
@<TRIPOS>BOND
     1      1      2   2
     2      2      3   1
     3      3      4   2
     4      4      5   1
     5      5      6   2
     6      6      1   1
     7      4      7   1
     8      7      8   1
     9      8      9   2
    10      9     10   1
    11     10     11   2
    12     11     12   1
    13     12     13   2
    14     13      8   1
    15     14     15   1
    16      1     14   1
    17     16     17   1
    18     11     16   1
    19     18     19   2
    20     19     20   1
    21     20     21   2
    22     21     22   1
    23     22     23   2
    24     23     18   1
    25     21     24   1
    26     24     25   2
    27     25     26   1
    28     26     27   2
    29     27     22   1
    30      7     18   1
    31      2     28   1
    32      3     29   1
    33      5     30   1
    34      6     31   1
    35      9     32   1
    36     10     33   1
    37     12     34   1
    38     13     35   1
    39     15     36   1
    40     15     37   1
    41     15     38   1
    42     17     39   1
    43     17     40   1
    44     17     41   1
    45     19     42   1
    46     20     43   1
    47     23     44   1
    48     24     45   1
    49     25     46   1
    50     27     47   1
    51     48     49   2
    52     49     50   1
    53     50     51   2
    54     51     52   1
    55     52     53   2
    56     53     48   1
    57     50     54   1
    58     51     55   1
    59     53     56   1
    60     26     48   1
