# Produced with molli package
@<TRIPOS>MOLECULE
B_6_M
59 63 0 0 0
SMALL
USER_CHARGES

@<TRIPOS>ATOM
     1 C      -5.947439     4.331705     0.404761 C          1 UNL1 0.000
     2 C      -6.649610     3.190220     0.033163 C          1 UNL1 0.000
     3 C      -6.012675     1.936558     0.026249 C          1 UNL1 0.000
     4 C      -4.685580     1.778321     0.458255 C          1 UNL1 0.000
     5 C      -3.997201     2.966860     0.797719 C          1 UNL1 0.000
     6 C      -4.617429     4.221737     0.779787 C          1 UNL1 0.000
     7 N      -4.010324     0.491196     0.521909 N          1 UNL1 0.000
     8 C      -4.648155    -0.815405     0.598048 C          1 UNL1 0.000
     9 C      -5.970174    -1.017201     1.029800 C          1 UNL1 0.000
    10 C      -6.563839    -2.294234     1.029338 C          1 UNL1 0.000
    11 C      -5.820577    -3.411529     0.661906 C          1 UNL1 0.000
    12 C      -4.499098    -3.254205     0.277583 C          1 UNL1 0.000
    13 C      -3.923415    -1.981499     0.256434 C          1 UNL1 0.000
    14 O      -6.521918     5.566827     0.511293 O          1 UNL1 0.000
    15 C      -7.136703     6.004832    -0.697119 C          1 UNL1 0.000
    16 O      -6.308558    -4.685060     0.607007 O          1 UNL1 0.000
    17 C      -7.074288    -5.063007     1.745806 C          1 UNL1 0.000
    18 C      -2.556949     0.508985     0.478108 C          1 UNL1 0.000
    19 C      -1.859166     0.470773     1.696322 C          1 UNL1 0.000
    20 C      -0.470076     0.486573     1.706482 C          1 UNL1 0.000
    21 C       0.256152     0.516653     0.504125 C          1 UNL1 0.000
    22 C      -0.434087     0.524738    -0.745825 C          1 UNL1 0.000
    23 C      -1.853600     0.532040    -0.760246 C          1 UNL1 0.000
    24 C       0.241666     0.511466    -1.991004 C          1 UNL1 0.000
    25 C      -0.441586     0.496016    -3.207325 C          1 UNL1 0.000
    26 C      -1.825791     0.503294    -3.216252 C          1 UNL1 0.000
    27 C      -2.520341     0.526335    -2.008682 C          1 UNL1 0.000
    28 H      -7.700189     3.248388    -0.233886 H          1 UNL1 0.000
    29 H      -6.587850     1.093306    -0.341458 H          1 UNL1 0.000
    30 H      -2.953737     2.945431     1.099680 H          1 UNL1 0.000
    31 H      -4.055459     5.107162     1.064254 H          1 UNL1 0.000
    32 H      -6.573496    -0.192415     1.395118 H          1 UNL1 0.000
    33 H      -7.608496    -2.391843     1.309415 H          1 UNL1 0.000
    34 H      -3.905663    -4.120481    -0.001823 H          1 UNL1 0.000
    35 H      -2.882368    -1.931261    -0.050090 H          1 UNL1 0.000
    36 H      -6.396921     6.083328    -1.500852 H          1 UNL1 0.000
    37 H      -7.546871     7.003512    -0.516430 H          1 UNL1 0.000
    38 H      -7.966228     5.357933    -0.996678 H          1 UNL1 0.000
    39 H      -6.922513    -6.135725     1.902336 H          1 UNL1 0.000
    40 H      -8.137072    -4.891293     1.553588 H          1 UNL1 0.000
    41 H      -6.758620    -4.547899     2.660053 H          1 UNL1 0.000
    42 H      -2.409671     0.443554     2.633757 H          1 UNL1 0.000
    43 H       0.051913     0.474482     2.661585 H          1 UNL1 0.000
    44 H       1.329265     0.500193    -2.028992 H          1 UNL1 0.000
    45 H       0.111997     0.473923    -4.142027 H          1 UNL1 0.000
    46 H      -2.370109     0.484875    -4.156328 H          1 UNL1 0.000
    47 H      -3.608300     0.521131    -2.047846 H          1 UNL1 0.000
    48 C       1.725862     0.537669     0.578896 C          1 UNL1 0.000
    49 C       2.421056     1.756863     0.573506 C          1 UNL1 0.000
    50 C       3.818438     1.781407     0.583316 C          1 UNL1 0.000
    51 C       4.539573     0.584171     0.603161 C          1 UNL1 0.000
    52 C       3.857399    -0.635936     0.628511 C          1 UNL1 0.000
    53 C       2.459497    -0.657773     0.619064 C          1 UNL1 0.000
    54 C       5.973981     0.607890     0.583343 C          1 UNL1 0.000
    55 N       7.132329     0.627922     0.559959 N          1 UNL1 0.000
    56 H       1.870476     2.695910     0.542178 H          1 UNL1 0.000
    57 H       4.334842     2.739337     0.563662 H          1 UNL1 0.000
    58 H       4.405233    -1.576370     0.644007 H          1 UNL1 0.000
    59 H       1.940014    -1.614790     0.622935 H          1 UNL1 0.000
@<TRIPOS>BOND
     1      1      2   2
     2      2      3   1
     3      3      4   2
     4      4      5   1
     5      5      6   2
     6      6      1   1
     7      4      7   1
     8      7      8   1
     9      8      9   2
    10      9     10   1
    11     10     11   2
    12     11     12   1
    13     12     13   2
    14     13      8   1
    15     14     15   1
    16      1     14   1
    17     16     17   1
    18     11     16   1
    19     18     19   2
    20     19     20   1
    21     20     21   2
    22     21     22   1
    23     22     23   2
    24     23     18   1
    25     22     24   1
    26     24     25   2
    27     25     26   1
    28     26     27   2
    29     27     23   1
    30      7     18   1
    31      2     28   1
    32      3     29   1
    33      5     30   1
    34      6     31   1
    35      9     32   1
    36     10     33   1
    37     12     34   1
    38     13     35   1
    39     15     36   1
    40     15     37   1
    41     15     38   1
    42     17     39   1
    43     17     40   1
    44     17     41   1
    45     19     42   1
    46     20     43   1
    47     24     44   1
    48     25     45   1
    49     26     46   1
    50     27     47   1
    51     48     49   2
    52     49     50   1
    53     50     51   2
    54     51     52   1
    55     52     53   2
    56     53     48   1
    57     54     55   3
    58     51     54   1
    59     49     56   1
    60     50     57   1
    61     52     58   1
    62     53     59   1
    63     21     48   1
