# Produced with molli package
@<TRIPOS>MOLECULE
B_6_O
57 61 0 0 0
SMALL
USER_CHARGES

@<TRIPOS>ATOM
     1 C      -5.909448     4.345487     0.605930 C          1 UNL1 0.000
     2 C      -6.521741     3.217319     1.137560 C          1 UNL1 0.000
     3 C      -5.855517     1.985262     1.115922 C          1 UNL1 0.000
     4 C      -4.575078     1.853383     0.547656 C          1 UNL1 0.000
     5 C      -3.955780     3.035518     0.087130 C          1 UNL1 0.000
     6 C      -4.611121     4.270188     0.119527 C          1 UNL1 0.000
     7 N      -3.896452     0.575115     0.459643 N          1 UNL1 0.000
     8 C      -4.576803    -0.703025     0.398907 C          1 UNL1 0.000
     9 C      -5.855040    -0.839170    -0.171776 C          1 UNL1 0.000
    10 C      -6.511464    -2.074375    -0.203121 C          1 UNL1 0.000
    11 C      -5.898155    -3.202176     0.328202 C          1 UNL1 0.000
    12 C      -4.604305    -3.120018     0.829120 C          1 UNL1 0.000
    13 C      -3.954157    -1.880325     0.865982 C          1 UNL1 0.000
    14 O      -6.587451     5.532335     0.639727 O          1 UNL1 0.000
    15 C      -6.944889     5.942297    -0.681522 C          1 UNL1 0.000
    16 O      -6.593753    -4.376276     0.276080 O          1 UNL1 0.000
    17 C      -6.770519    -4.961097     1.566398 C          1 UNL1 0.000
    18 C      -2.449394     0.576303     0.385090 C          1 UNL1 0.000
    19 C      -1.729761     0.715413     1.581313 C          1 UNL1 0.000
    20 C      -0.340580     0.707864     1.565195 C          1 UNL1 0.000
    21 C       0.365319     0.582618     0.356356 C          1 UNL1 0.000
    22 C      -0.346661     0.490631    -0.875609 C          1 UNL1 0.000
    23 C      -1.768229     0.471317    -0.861462 C          1 UNL1 0.000
    24 C       0.306095     0.437372    -2.131535 C          1 UNL1 0.000
    25 C      -0.398392     0.363817    -3.333223 C          1 UNL1 0.000
    26 C      -1.782734     0.335137    -3.315224 C          1 UNL1 0.000
    27 C      -2.455025     0.386433    -2.095803 C          1 UNL1 0.000
    28 H      -7.518111     3.290699     1.563580 H          1 UNL1 0.000
    29 H      -6.354845     1.130512     1.563831 H          1 UNL1 0.000
    30 H      -2.948929     3.017301    -0.322598 H          1 UNL1 0.000
    31 H      -4.098885     5.159647    -0.234790 H          1 UNL1 0.000
    32 H      -6.355989     0.013481    -0.621587 H          1 UNL1 0.000
    33 H      -7.504736    -2.152212    -0.635935 H          1 UNL1 0.000
    34 H      -4.090144    -4.007147     1.186314 H          1 UNL1 0.000
    35 H      -2.948951    -1.850480     1.277861 H          1 UNL1 0.000
    36 H      -6.061831     6.166490    -1.289471 H          1 UNL1 0.000
    37 H      -7.536563     6.858943    -0.600037 H          1 UNL1 0.000
    38 H      -7.563185     5.182358    -1.173030 H          1 UNL1 0.000
    39 H      -6.131337    -5.844422     1.654580 H          1 UNL1 0.000
    40 H      -7.814276    -5.280498     1.646573 H          1 UNL1 0.000
    41 H      -6.568805    -4.272187     2.395684 H          1 UNL1 0.000
    42 H      -2.260335     0.816661     2.524729 H          1 UNL1 0.000
    43 H       0.202997     0.805838     2.503184 H          1 UNL1 0.000
    44 H       1.392935     0.480270    -2.189626 H          1 UNL1 0.000
    45 H       0.137733     0.339648    -4.277752 H          1 UNL1 0.000
    46 H      -2.343783     0.285125    -4.244068 H          1 UNL1 0.000
    47 H      -3.543516     0.379641    -2.116903 H          1 UNL1 0.000
    48 C       1.832809     0.543927     0.415166 C          1 UNL1 0.000
    49 N       2.454094     1.746059     0.482837 N          1 UNL1 0.000
    50 C       3.804357     1.742642     0.514292 C          1 UNL1 0.000
    51 C       4.574139     0.591692     0.488971 C          1 UNL1 0.000
    52 C       3.922073    -0.633853     0.431411 C          1 UNL1 0.000
    53 C       2.530942    -0.662475     0.394948 C          1 UNL1 0.000
    54 H       4.266540     2.724608     0.559405 H          1 UNL1 0.000
    55 H       5.656458     0.649969     0.513686 H          1 UNL1 0.000
    56 H       4.489933    -1.559458     0.411603 H          1 UNL1 0.000
    57 H       1.999943    -1.607755     0.344080 H          1 UNL1 0.000
@<TRIPOS>BOND
     1      1      2   2
     2      2      3   1
     3      3      4   2
     4      4      5   1
     5      5      6   2
     6      6      1   1
     7      4      7   1
     8      7      8   1
     9      8      9   2
    10      9     10   1
    11     10     11   2
    12     11     12   1
    13     12     13   2
    14     13      8   1
    15     14     15   1
    16      1     14   1
    17     16     17   1
    18     11     16   1
    19     18     19   2
    20     19     20   1
    21     20     21   2
    22     21     22   1
    23     22     23   2
    24     23     18   1
    25     22     24   1
    26     24     25   2
    27     25     26   1
    28     26     27   2
    29     27     23   1
    30      7     18   1
    31      2     28   1
    32      3     29   1
    33      5     30   1
    34      6     31   1
    35      9     32   1
    36     10     33   1
    37     12     34   1
    38     13     35   1
    39     15     36   1
    40     15     37   1
    41     15     38   1
    42     17     39   1
    43     17     40   1
    44     17     41   1
    45     19     42   1
    46     20     43   1
    47     24     44   1
    48     25     45   1
    49     26     46   1
    50     27     47   1
    51     48     49   2
    52     49     50   1
    53     50     51   2
    54     51     52   1
    55     52     53   2
    56     53     48   1
    57     50     54   1
    58     51     55   1
    59     52     56   1
    60     53     57   1
    61     21     48   1
