# Produced with molli package
@<TRIPOS>MOLECULE
B_6_P
62 66 0 0 0
SMALL
USER_CHARGES

@<TRIPOS>ATOM
     1 C      -5.795591     4.335444     0.605359 C          1 UNL1 0.000
     2 C      -6.449575     3.236662     1.147959 C          1 UNL1 0.000
     3 C      -5.821426     1.985529     1.148142 C          1 UNL1 0.000
     4 C      -4.539364     1.807527     0.593593 C          1 UNL1 0.000
     5 C      -3.881061     2.960467     0.115375 C          1 UNL1 0.000
     6 C      -4.499110     4.213969     0.123916 C          1 UNL1 0.000
     7 N      -3.902953     0.506162     0.536706 N          1 UNL1 0.000
     8 C      -4.638548    -0.738729     0.493101 C          1 UNL1 0.000
     9 C      -5.885913    -0.835826    -0.148686 C          1 UNL1 0.000
    10 C      -6.615889    -2.029170    -0.143193 C          1 UNL1 0.000
    11 C      -6.114207    -3.155643     0.500725 C          1 UNL1 0.000
    12 C      -4.844378    -3.112324     1.068321 C          1 UNL1 0.000
    13 C      -4.115609    -1.915415     1.062456 C          1 UNL1 0.000
    14 O      -6.414735     5.554137     0.611740 O          1 UNL1 0.000
    15 C      -6.981664     5.816208    -0.673416 C          1 UNL1 0.000
    16 O      -6.920249    -4.259823     0.493701 O          1 UNL1 0.000
    17 C      -6.881434    -5.015951     1.701882 C          1 UNL1 0.000
    18 C      -2.456609     0.451867     0.483095 C          1 UNL1 0.000
    19 C      -1.746693     0.569410     1.687797 C          1 UNL1 0.000
    20 C      -0.356434     0.550869     1.687771 C          1 UNL1 0.000
    21 C       0.360602     0.443734     0.484940 C          1 UNL1 0.000
    22 C      -0.341410     0.357143    -0.755058 C          1 UNL1 0.000
    23 C      -1.763524     0.342252    -0.755526 C          1 UNL1 0.000
    24 C       0.321403     0.308366    -2.006051 C          1 UNL1 0.000
    25 C      -0.370852     0.239921    -3.214797 C          1 UNL1 0.000
    26 C      -1.755058     0.212375    -3.210047 C          1 UNL1 0.000
    27 C      -2.438117     0.261579    -1.996815 C          1 UNL1 0.000
    28 H      -7.444568     3.347562     1.568536 H          1 UNL1 0.000
    29 H      -6.349618     1.151155     1.602137 H          1 UNL1 0.000
    30 H      -2.875452     2.902676    -0.292465 H          1 UNL1 0.000
    31 H      -3.967129     5.083249    -0.250763 H          1 UNL1 0.000
    32 H      -6.305662     0.018637    -0.672998 H          1 UNL1 0.000
    33 H      -7.587390    -2.071645    -0.628299 H          1 UNL1 0.000
    34 H      -4.398505    -3.994585     1.516588 H          1 UNL1 0.000
    35 H      -3.136046    -1.915897     1.532744 H          1 UNL1 0.000
    36 H      -6.223464     5.795625    -1.464497 H          1 UNL1 0.000
    37 H      -7.416183     6.819965    -0.650652 H          1 UNL1 0.000
    38 H      -7.782975     5.103028    -0.896717 H          1 UNL1 0.000
    39 H      -6.053970    -5.731426     1.677250 H          1 UNL1 0.000
    40 H      -7.816761    -5.579635     1.772536 H          1 UNL1 0.000
    41 H      -6.814870    -4.376087     2.589827 H          1 UNL1 0.000
    42 H      -2.286584     0.667344     2.626398 H          1 UNL1 0.000
    43 H       0.173504     0.624166     2.635518 H          1 UNL1 0.000
    44 H       1.409173     0.339409    -2.055537 H          1 UNL1 0.000
    45 H       0.175166     0.213089    -4.153546 H          1 UNL1 0.000
    46 H      -2.306932     0.161677    -4.144190 H          1 UNL1 0.000
    47 H      -3.526349     0.252871    -2.028548 H          1 UNL1 0.000
    48 C       1.833382     0.430743     0.549356 C          1 UNL1 0.000
    49 C       2.555508     1.621892     0.729799 C          1 UNL1 0.000
    50 C       3.953154     1.616037     0.726259 C          1 UNL1 0.000
    51 C       4.636056     0.413805     0.557108 C          1 UNL1 0.000
    52 C       3.939450    -0.776630     0.373868 C          1 UNL1 0.000
    53 C       2.543668    -0.770084     0.384895 C          1 UNL1 0.000
    54 O       6.000780     0.378828     0.473602 O          1 UNL1 0.000
    55 C       6.591883     0.589681     1.754590 C          1 UNL1 0.000
    56 H       2.027491     2.566678     0.843239 H          1 UNL1 0.000
    57 H       4.497780     2.549908     0.826698 H          1 UNL1 0.000
    58 H       4.479775    -1.704915     0.213928 H          1 UNL1 0.000
    59 H       2.006252    -1.704489     0.235490 H          1 UNL1 0.000
    60 H       7.665127     0.397896     1.661211 H          1 UNL1 0.000
    61 H       6.187997    -0.105993     2.498862 H          1 UNL1 0.000
    62 H       6.460785     1.625002     2.085269 H          1 UNL1 0.000
@<TRIPOS>BOND
     1      1      2   2
     2      2      3   1
     3      3      4   2
     4      4      5   1
     5      5      6   2
     6      6      1   1
     7      4      7   1
     8      7      8   1
     9      8      9   2
    10      9     10   1
    11     10     11   2
    12     11     12   1
    13     12     13   2
    14     13      8   1
    15     14     15   1
    16      1     14   1
    17     16     17   1
    18     11     16   1
    19     18     19   2
    20     19     20   1
    21     20     21   2
    22     21     22   1
    23     22     23   2
    24     23     18   1
    25     22     24   1
    26     24     25   2
    27     25     26   1
    28     26     27   2
    29     27     23   1
    30      7     18   1
    31      2     28   1
    32      3     29   1
    33      5     30   1
    34      6     31   1
    35      9     32   1
    36     10     33   1
    37     12     34   1
    38     13     35   1
    39     15     36   1
    40     15     37   1
    41     15     38   1
    42     17     39   1
    43     17     40   1
    44     17     41   1
    45     19     42   1
    46     20     43   1
    47     24     44   1
    48     25     45   1
    49     26     46   1
    50     27     47   1
    51     48     49   2
    52     49     50   1
    53     50     51   2
    54     51     52   1
    55     52     53   2
    56     53     48   1
    57     54     55   1
    58     51     54   1
    59     49     56   1
    60     50     57   1
    61     52     58   1
    62     53     59   1
    63     55     60   1
    64     55     61   1
    65     55     62   1
    66     21     48   1
