# Produced with molli package
@<TRIPOS>MOLECULE
B_6_R
59 63 0 0 0
SMALL
USER_CHARGES

@<TRIPOS>ATOM
     1 C      -5.864310     4.311127     0.374508 C          1 UNL1 0.000
     2 C      -6.501186     3.179378    -0.128881 C          1 UNL1 0.000
     3 C      -5.862144     1.929259    -0.083625 C          1 UNL1 0.000
     4 C      -4.583882     1.777641     0.481233 C          1 UNL1 0.000
     5 C      -3.965243     2.939553     0.982325 C          1 UNL1 0.000
     6 C      -4.601868     4.183981     0.942935 C          1 UNL1 0.000
     7 N      -3.896942     0.504038     0.497561 N          1 UNL1 0.000
     8 C      -4.557883    -0.780442     0.581608 C          1 UNL1 0.000
     9 C      -5.790762    -0.950127     1.233407 C          1 UNL1 0.000
    10 C      -6.402798    -2.211744     1.328963 C          1 UNL1 0.000
    11 C      -5.780663    -3.337317     0.793367 C          1 UNL1 0.000
    12 C      -4.563374    -3.191128     0.138463 C          1 UNL1 0.000
    13 C      -3.956388    -1.936133     0.044964 C          1 UNL1 0.000
    14 O      -6.390501     5.572386     0.394953 O          1 UNL1 0.000
    15 C      -7.253538     5.887719    -0.691593 C          1 UNL1 0.000
    16 O      -6.263816    -4.614724     0.829995 O          1 UNL1 0.000
    17 C      -7.175836    -4.904081     1.881884 C          1 UNL1 0.000
    18 C      -2.449462     0.514138     0.429314 C          1 UNL1 0.000
    19 C      -1.733818     0.408197     1.631727 C          1 UNL1 0.000
    20 C      -0.345483     0.422145     1.622042 C          1 UNL1 0.000
    21 C       0.365023     0.506792     0.412281 C          1 UNL1 0.000
    22 C      -0.343051     0.595683    -0.824017 C          1 UNL1 0.000
    23 C      -1.763543     0.607412    -0.815050 C          1 UNL1 0.000
    24 C       0.312457     0.666773    -2.078664 C          1 UNL1 0.000
    25 C      -0.390606     0.721291    -3.282840 C          1 UNL1 0.000
    26 C      -1.774665     0.724956    -3.269266 C          1 UNL1 0.000
    27 C      -2.449385     0.677572    -2.051287 C          1 UNL1 0.000
    28 H      -7.496950     3.235664    -0.555906 H          1 UNL1 0.000
    29 H      -6.373365     1.077821    -0.525433 H          1 UNL1 0.000
    30 H      -2.972531     2.900465     1.422058 H          1 UNL1 0.000
    31 H      -4.096793     5.059371     1.343500 H          1 UNL1 0.000
    32 H      -6.286601    -0.104740     1.703766 H          1 UNL1 0.000
    33 H      -7.364883    -2.280949     1.826031 H          1 UNL1 0.000
    34 H      -4.070546    -4.059499    -0.291361 H          1 UNL1 0.000
    35 H      -3.001173    -1.883673    -0.469750 H          1 UNL1 0.000
    36 H      -6.794796     5.632288    -1.653171 H          1 UNL1 0.000
    37 H      -7.421336     6.969257    -0.679103 H          1 UNL1 0.000
    38 H      -8.225498     5.398983    -0.576559 H          1 UNL1 0.000
    39 H      -7.263577    -5.992592     1.954515 H          1 UNL1 0.000
    40 H      -8.167025    -4.500073     1.655531 H          1 UNL1 0.000
    41 H      -6.810326    -4.536530     2.847013 H          1 UNL1 0.000
    42 H      -2.269149     0.336233     2.575485 H          1 UNL1 0.000
    43 H       0.191724     0.366744     2.567206 H          1 UNL1 0.000
    44 H       1.398939     0.682453    -2.135320 H          1 UNL1 0.000
    45 H       0.147016     0.764065    -4.226156 H          1 UNL1 0.000
    46 H      -2.334344     0.766149    -4.199612 H          1 UNL1 0.000
    47 H      -3.537686     0.680692    -2.073775 H          1 UNL1 0.000
    48 C       1.831539     0.479505     0.472686 C          1 UNL1 0.000
    49 N       2.434091     1.666384     0.739523 N          1 UNL1 0.000
    50 C       3.789559     1.690676     0.771027 C          1 UNL1 0.000
    51 C       4.569225     0.567511     0.549481 C          1 UNL1 0.000
    52 C       3.944749    -0.653816     0.292649 C          1 UNL1 0.000
    53 C       2.551476    -0.696941     0.257858 C          1 UNL1 0.000
    54 N       6.018607     0.676225     0.576025 N          1 UNL1 0.000
    55 O       6.672406    -0.275222     0.127427 O          1 UNL1 0.000
    56 O       6.510194     1.712895     1.043092 O          1 UNL1 0.000
    57 H       4.216908     2.669254     0.976124 H          1 UNL1 0.000
    58 H       4.516961    -1.561518     0.117526 H          1 UNL1 0.000
    59 H       2.033594    -1.630349     0.054944 H          1 UNL1 0.000
@<TRIPOS>BOND
     1      1      2   2
     2      2      3   1
     3      3      4   2
     4      4      5   1
     5      5      6   2
     6      6      1   1
     7      4      7   1
     8      7      8   1
     9      8      9   2
    10      9     10   1
    11     10     11   2
    12     11     12   1
    13     12     13   2
    14     13      8   1
    15     14     15   1
    16      1     14   1
    17     16     17   1
    18     11     16   1
    19     18     19   2
    20     19     20   1
    21     20     21   2
    22     21     22   1
    23     22     23   2
    24     23     18   1
    25     22     24   1
    26     24     25   2
    27     25     26   1
    28     26     27   2
    29     27     23   1
    30      7     18   1
    31      2     28   1
    32      3     29   1
    33      5     30   1
    34      6     31   1
    35      9     32   1
    36     10     33   1
    37     12     34   1
    38     13     35   1
    39     15     36   1
    40     15     37   1
    41     15     38   1
    42     17     39   1
    43     17     40   1
    44     17     41   1
    45     19     42   1
    46     20     43   1
    47     24     44   1
    48     25     45   1
    49     26     46   1
    50     27     47   1
    51     48     49   2
    52     49     50   1
    53     50     51   2
    54     51     52   1
    55     52     53   2
    56     53     48   1
    57     54     55   2
    58     54     56   1
    59     51     54   1
    60     50     57   1
    61     52     58   1
    62     53     59   1
    63     21     48   1
