# Produced with molli package
@<TRIPOS>MOLECULE
B_6_N
55 59 0 0 0
SMALL
USER_CHARGES

@<TRIPOS>ATOM
     1 C      -5.950664     4.314357     0.627038 C          1 UNL1 0.000
     2 C      -6.495847     3.207221     1.267537 C          1 UNL1 0.000
     3 C      -5.838864     1.972525     1.211739 C          1 UNL1 0.000
     4 C      -4.627535     1.821357     0.512860 C          1 UNL1 0.000
     5 C      -4.066013     2.977490    -0.064942 C          1 UNL1 0.000
     6 C      -4.718036     4.213176    -0.007904 C          1 UNL1 0.000
     7 N      -3.959953     0.541902     0.409612 N          1 UNL1 0.000
     8 C      -4.665396    -0.721797     0.373905 C          1 UNL1 0.000
     9 C      -5.963668    -0.823512    -0.159181 C          1 UNL1 0.000
    10 C      -6.658578    -2.036862    -0.157514 C          1 UNL1 0.000
    11 C      -6.067501    -3.175356     0.376149 C          1 UNL1 0.000
    12 C      -4.757372    -3.127736     0.839654 C          1 UNL1 0.000
    13 C      -4.064748    -1.910415     0.837013 C          1 UNL1 0.000
    14 O      -6.632923     5.496591     0.711009 O          1 UNL1 0.000
    15 C      -6.972190     5.999537    -0.581760 C          1 UNL1 0.000
    16 O      -6.810836    -4.321957     0.372697 O          1 UNL1 0.000
    17 C      -6.932782    -4.885580     1.678600 C          1 UNL1 0.000
    18 C      -2.513145     0.532220     0.383763 C          1 UNL1 0.000
    19 C      -1.834798     0.683308     1.604660 C          1 UNL1 0.000
    20 C      -0.447684     0.656862     1.643185 C          1 UNL1 0.000
    21 C       0.286740     0.507879     0.459055 C          1 UNL1 0.000
    22 C      -0.368271     0.391682    -0.799418 C          1 UNL1 0.000
    23 C      -1.787985     0.391539    -0.835382 C          1 UNL1 0.000
    24 C       0.331567     0.292282    -2.028220 C          1 UNL1 0.000
    25 C      -0.331844     0.199737    -3.252160 C          1 UNL1 0.000
    26 C      -1.716188     0.193806    -3.283385 C          1 UNL1 0.000
    27 C      -2.432468     0.284337    -2.090902 C          1 UNL1 0.000
    28 H      -7.436090     3.299094     1.803820 H          1 UNL1 0.000
    29 H      -6.283034     1.130310     1.736138 H          1 UNL1 0.000
    30 H      -3.114597     2.931918    -0.588348 H          1 UNL1 0.000
    31 H      -4.247365     5.083659    -0.454078 H          1 UNL1 0.000
    32 H      -6.452217     0.042755    -0.597226 H          1 UNL1 0.000
    33 H      -7.666351    -2.087644    -0.559722 H          1 UNL1 0.000
    34 H      -4.262167    -4.024676     1.199083 H          1 UNL1 0.000
    35 H      -3.047795    -1.907193     1.220186 H          1 UNL1 0.000
    36 H      -6.086098     6.334599    -1.130346 H          1 UNL1 0.000
    37 H      -7.624685     6.866693    -0.442628 H          1 UNL1 0.000
    38 H      -7.523497     5.251506    -1.163122 H          1 UNL1 0.000
    39 H      -6.155426    -5.639508     1.834519 H          1 UNL1 0.000
    40 H      -7.907783    -5.379032     1.737891 H          1 UNL1 0.000
    41 H      -6.895097    -4.130339     2.473283 H          1 UNL1 0.000
    42 H      -2.399951     0.799567     2.526438 H          1 UNL1 0.000
    43 H       0.060623     0.747797     2.600826 H          1 UNL1 0.000
    44 H       1.419855     0.301387    -2.045393 H          1 UNL1 0.000
    45 H       0.237083     0.136579    -4.175869 H          1 UNL1 0.000
    46 H      -2.244372     0.124917    -4.230535 H          1 UNL1 0.000
    47 H      -3.519302     0.286913    -2.150219 H          1 UNL1 0.000
    48 C       1.739098     0.458976     0.577430 C          1 UNL1 0.000
    49 C       2.489916     1.609427     0.713728 C          1 UNL1 0.000
    50 S       4.165211     1.276270     0.834612 S          1 UNL1 0.000
    51 C       3.896662    -0.409131     0.713574 C          1 UNL1 0.000
    52 C       2.559261    -0.711849     0.582457 C          1 UNL1 0.000
    53 H       2.141350     2.633199     0.743589 H          1 UNL1 0.000
    54 H       4.731079    -1.096204     0.744944 H          1 UNL1 0.000
    55 H       2.184211    -1.724380     0.491866 H          1 UNL1 0.000
@<TRIPOS>BOND
     1      1      2   2
     2      2      3   1
     3      3      4   2
     4      4      5   1
     5      5      6   2
     6      6      1   1
     7      4      7   1
     8      7      8   1
     9      8      9   2
    10      9     10   1
    11     10     11   2
    12     11     12   1
    13     12     13   2
    14     13      8   1
    15     14     15   1
    16      1     14   1
    17     16     17   1
    18     11     16   1
    19     18     19   2
    20     19     20   1
    21     20     21   2
    22     21     22   1
    23     22     23   2
    24     23     18   1
    25     22     24   1
    26     24     25   2
    27     25     26   1
    28     26     27   2
    29     27     23   1
    30      7     18   1
    31      2     28   1
    32      3     29   1
    33      5     30   1
    34      6     31   1
    35      9     32   1
    36     10     33   1
    37     12     34   1
    38     13     35   1
    39     15     36   1
    40     15     37   1
    41     15     38   1
    42     17     39   1
    43     17     40   1
    44     17     41   1
    45     19     42   1
    46     20     43   1
    47     24     44   1
    48     25     45   1
    49     26     46   1
    50     27     47   1
    51     48     49   2
    52     49     50   1
    53     50     51   1
    54     51     52   2
    55     52     48   1
    56     49     53   1
    57     51     54   1
    58     52     55   1
    59     21     48   1
