# Produced with molli package
@<TRIPOS>MOLECULE
B_6_S
63 67 0 0 0
SMALL
USER_CHARGES

@<TRIPOS>ATOM
     1 C      -5.917077     4.359918     0.592944 C          1 UNL1 0.000
     2 C      -6.532081     3.242677     1.144171 C          1 UNL1 0.000
     3 C      -5.875563     2.004924     1.129282 C          1 UNL1 0.000
     4 C      -4.603160     1.856044     0.547278 C          1 UNL1 0.000
     5 C      -3.977798     3.029210     0.072920 C          1 UNL1 0.000
     6 C      -4.623275     4.269006     0.097581 C          1 UNL1 0.000
     7 N      -3.939400     0.569413     0.457266 N          1 UNL1 0.000
     8 C      -4.636051    -0.699743     0.382593 C          1 UNL1 0.000
     9 C      -5.928248    -0.809899    -0.161044 C          1 UNL1 0.000
    10 C      -6.605773    -2.034149    -0.191782 C          1 UNL1 0.000
    11 C      -6.001253    -3.180227     0.310548 C          1 UNL1 0.000
    12 C      -4.691915    -3.123824     0.773764 C          1 UNL1 0.000
    13 C      -4.020322    -1.894954     0.810483 C          1 UNL1 0.000
    14 O      -6.584495     5.552837     0.618964 O          1 UNL1 0.000
    15 C      -6.940835     5.959247    -0.703895 C          1 UNL1 0.000
    16 O      -6.736966    -4.331315     0.272793 O          1 UNL1 0.000
    17 C      -6.739898    -5.024328     1.520330 C          1 UNL1 0.000
    18 C      -2.492135     0.555642     0.393163 C          1 UNL1 0.000
    19 C      -1.779339     0.627596     1.599640 C          1 UNL1 0.000
    20 C      -0.390266     0.619320     1.593280 C          1 UNL1 0.000
    21 C       0.323676     0.567739     0.384092 C          1 UNL1 0.000
    22 C      -0.381571     0.527545    -0.855846 C          1 UNL1 0.000
    23 C      -1.802084     0.505615    -0.851701 C          1 UNL1 0.000
    24 C       0.278831     0.528884    -2.109215 C          1 UNL1 0.000
    25 C      -0.419667     0.512008    -3.317027 C          1 UNL1 0.000
    26 C      -1.803623     0.482568    -3.308530 C          1 UNL1 0.000
    27 C      -2.483092     0.474760    -2.092139 C          1 UNL1 0.000
    28 H      -7.523525     3.328357     1.579491 H          1 UNL1 0.000
    29 H      -6.376660     1.158690     1.591599 H          1 UNL1 0.000
    30 H      -2.975564     3.000412    -0.345823 H          1 UNL1 0.000
    31 H      -4.107730     5.150553    -0.271296 H          1 UNL1 0.000
    32 H      -6.428786     0.055360    -0.586354 H          1 UNL1 0.000
    33 H      -7.612525    -2.087626    -0.596835 H          1 UNL1 0.000
    34 H      -4.176787    -4.021235     1.102327 H          1 UNL1 0.000
    35 H      -3.003408    -1.890939     1.193416 H          1 UNL1 0.000
    36 H      -6.059319     6.128778    -1.331625 H          1 UNL1 0.000
    37 H      -7.484010     6.906024    -0.629445 H          1 UNL1 0.000
    38 H      -7.604374     5.222600    -1.170908 H          1 UNL1 0.000
    39 H      -5.913280    -5.740269     1.556908 H          1 UNL1 0.000
    40 H      -7.679177    -5.581644     1.588844 H          1 UNL1 0.000
    41 H      -6.696089    -4.343777     2.379333 H          1 UNL1 0.000
    42 H      -2.317096     0.677783     2.543437 H          1 UNL1 0.000
    43 H       0.142775     0.659170     2.541636 H          1 UNL1 0.000
    44 H       1.365616     0.559811    -2.160313 H          1 UNL1 0.000
    45 H       0.121714     0.526931    -4.259013 H          1 UNL1 0.000
    46 H      -2.359776     0.473407    -4.241850 H          1 UNL1 0.000
    47 H      -3.571234     0.463309    -2.119127 H          1 UNL1 0.000
    48 C       1.794360     0.571543     0.450130 C          1 UNL1 0.000
    49 C       2.500563     1.776194     0.566336 C          1 UNL1 0.000
    50 C       3.897613     1.781404     0.608883 C          1 UNL1 0.000
    51 C       4.616693     0.581043     0.537576 C          1 UNL1 0.000
    52 C       3.918981    -0.626289     0.423407 C          1 UNL1 0.000
    53 C       2.519232    -0.628163     0.385842 C          1 UNL1 0.000
    54 C       6.108551     0.646804     0.577437 C          1 UNL1 0.000
    55 C       6.906651    -0.629724     0.531469 C          1 UNL1 0.000
    56 O       6.670613     1.740520     0.621320 O          1 UNL1 0.000
    57 H       1.963638     2.722036     0.613750 H          1 UNL1 0.000
    58 H       4.421904     2.732108     0.692482 H          1 UNL1 0.000
    59 H       4.432656    -1.580306     0.355385 H          1 UNL1 0.000
    60 H       1.989655    -1.575536     0.294858 H          1 UNL1 0.000
    61 H       6.924370    -1.018112    -0.489917 H          1 UNL1 0.000
    62 H       6.505267    -1.373274     1.223822 H          1 UNL1 0.000
    63 H       7.933473    -0.418375     0.846834 H          1 UNL1 0.000
@<TRIPOS>BOND
     1      1      2   2
     2      2      3   1
     3      3      4   2
     4      4      5   1
     5      5      6   2
     6      6      1   1
     7      4      7   1
     8      7      8   1
     9      8      9   2
    10      9     10   1
    11     10     11   2
    12     11     12   1
    13     12     13   2
    14     13      8   1
    15     14     15   1
    16      1     14   1
    17     16     17   1
    18     11     16   1
    19     18     19   2
    20     19     20   1
    21     20     21   2
    22     21     22   1
    23     22     23   2
    24     23     18   1
    25     22     24   1
    26     24     25   2
    27     25     26   1
    28     26     27   2
    29     27     23   1
    30      7     18   1
    31      2     28   1
    32      3     29   1
    33      5     30   1
    34      6     31   1
    35      9     32   1
    36     10     33   1
    37     12     34   1
    38     13     35   1
    39     15     36   1
    40     15     37   1
    41     15     38   1
    42     17     39   1
    43     17     40   1
    44     17     41   1
    45     19     42   1
    46     20     43   1
    47     24     44   1
    48     25     45   1
    49     26     46   1
    50     27     47   1
    51     48     49   2
    52     49     50   1
    53     50     51   2
    54     51     52   1
    55     52     53   2
    56     53     48   1
    57     51     54   1
    58     54     55   1
    59     54     56   2
    60     49     57   1
    61     50     58   1
    62     52     59   1
    63     53     60   1
    64     55     61   1
    65     55     62   1
    66     55     63   1
    67     21     48   1
