# Produced with molli package
@<TRIPOS>MOLECULE
B_6_K
60 64 0 0 0
SMALL
USER_CHARGES

@<TRIPOS>ATOM
     1 C      -5.892965     4.188014     0.412476 C          1 UNL1 0.000
     2 C      -6.541445     3.050056    -0.058996 C          1 UNL1 0.000
     3 C      -5.887324     1.809298    -0.035980 C          1 UNL1 0.000
     4 C      -4.586473     1.675035     0.482175 C          1 UNL1 0.000
     5 C      -3.957917     2.847170     0.949153 C          1 UNL1 0.000
     6 C      -4.608198     4.085000     0.929940 C          1 UNL1 0.000
     7 N      -3.895651     0.403255     0.495855 N          1 UNL1 0.000
     8 C      -4.557439    -0.878175     0.605019 C          1 UNL1 0.000
     9 C      -5.756681    -1.043444     1.318043 C          1 UNL1 0.000
    10 C      -6.374280    -2.299960     1.431737 C          1 UNL1 0.000
    11 C      -5.791887    -3.423883     0.849953 C          1 UNL1 0.000
    12 C      -4.606257    -3.281612     0.137404 C          1 UNL1 0.000
    13 C      -3.991440    -2.031491     0.028181 C          1 UNL1 0.000
    14 O      -6.477633     5.422840     0.461611 O          1 UNL1 0.000
    15 C      -6.999202     5.838698    -0.798230 C          1 UNL1 0.000
    16 O      -6.293263    -4.694450     0.888305 O          1 UNL1 0.000
    17 C      -7.130411    -4.995523     1.997854 C          1 UNL1 0.000
    18 C      -2.448544     0.408539     0.435024 C          1 UNL1 0.000
    19 C      -1.740191     0.286933     1.640419 C          1 UNL1 0.000
    20 C      -0.351864     0.308701     1.641874 C          1 UNL1 0.000
    21 C       0.366658     0.420436     0.439727 C          1 UNL1 0.000
    22 C      -0.333806     0.497886    -0.801874 C          1 UNL1 0.000
    23 C      -1.754392     0.511098    -0.803254 C          1 UNL1 0.000
    24 C       0.330754     0.543766    -2.052428 C          1 UNL1 0.000
    25 C      -0.363371     0.602745    -3.261468 C          1 UNL1 0.000
    26 C      -1.747409     0.628507    -3.257097 C          1 UNL1 0.000
    27 C      -2.431350     0.588109    -2.043851 C          1 UNL1 0.000
    28 H      -7.558853     3.103751    -0.433130 H          1 UNL1 0.000
    29 H      -6.408483     0.948992    -0.448018 H          1 UNL1 0.000
    30 H      -2.949937     2.817897     1.353159 H          1 UNL1 0.000
    31 H      -4.103027     4.968211     1.311278 H          1 UNL1 0.000
    32 H      -6.220215    -0.197389     1.819394 H          1 UNL1 0.000
    33 H      -7.310847    -2.365581     1.975572 H          1 UNL1 0.000
    34 H      -4.145159    -4.149402    -0.327449 H          1 UNL1 0.000
    35 H      -3.062460    -1.978441    -0.532781 H          1 UNL1 0.000
    36 H      -6.253616     5.729112    -1.593841 H          1 UNL1 0.000
    37 H      -7.251528     6.900741    -0.718780 H          1 UNL1 0.000
    38 H      -7.916032     5.296355    -1.047524 H          1 UNL1 0.000
    39 H      -7.269208    -6.080805     2.023821 H          1 UNL1 0.000
    40 H      -8.115663    -4.534651     1.880072 H          1 UNL1 0.000
    41 H      -6.664717    -4.696966     2.943436 H          1 UNL1 0.000
    42 H      -2.281894     0.198828     2.579243 H          1 UNL1 0.000
    43 H       0.175354     0.242574     2.591907 H          1 UNL1 0.000
    44 H       1.417492     0.516449    -2.101878 H          1 UNL1 0.000
    45 H       0.181442     0.623474    -4.201445 H          1 UNL1 0.000
    46 H      -2.299843     0.670182    -4.191761 H          1 UNL1 0.000
    47 H      -3.519509     0.595865    -2.073778 H          1 UNL1 0.000
    48 C       1.836992     0.456152     0.515877 C          1 UNL1 0.000
    49 C       2.573040    -0.724544     0.710258 C          1 UNL1 0.000
    50 C       3.969350    -0.696258     0.762536 C          1 UNL1 0.000
    51 C       4.637057     0.525823     0.618169 C          1 UNL1 0.000
    52 C       3.922972     1.714840     0.434229 C          1 UNL1 0.000
    53 C       2.527330     1.674497     0.389052 C          1 UNL1 0.000
    54 N       6.101380     0.558021     0.653235 N          1 UNL1 0.000
    55 O       6.664426     1.560016     0.185839 O          1 UNL1 0.000
    56 O       6.686852    -0.415897     1.143665 O          1 UNL1 0.000
    57 H       2.054773    -1.677352     0.810710 H          1 UNL1 0.000
    58 H       4.515425    -1.626252     0.905320 H          1 UNL1 0.000
    59 H       4.431779     2.670382     0.324665 H          1 UNL1 0.000
    60 H       1.971404     2.600148     0.243646 H          1 UNL1 0.000
@<TRIPOS>BOND
     1      1      2   2
     2      2      3   1
     3      3      4   2
     4      4      5   1
     5      5      6   2
     6      6      1   1
     7      4      7   1
     8      7      8   1
     9      8      9   2
    10      9     10   1
    11     10     11   2
    12     11     12   1
    13     12     13   2
    14     13      8   1
    15     14     15   1
    16      1     14   1
    17     16     17   1
    18     11     16   1
    19     18     19   2
    20     19     20   1
    21     20     21   2
    22     21     22   1
    23     22     23   2
    24     23     18   1
    25     22     24   1
    26     24     25   2
    27     25     26   1
    28     26     27   2
    29     27     23   1
    30      7     18   1
    31      2     28   1
    32      3     29   1
    33      5     30   1
    34      6     31   1
    35      9     32   1
    36     10     33   1
    37     12     34   1
    38     13     35   1
    39     15     36   1
    40     15     37   1
    41     15     38   1
    42     17     39   1
    43     17     40   1
    44     17     41   1
    45     19     42   1
    46     20     43   1
    47     24     44   1
    48     25     45   1
    49     26     46   1
    50     27     47   1
    51     48     49   2
    52     49     50   1
    53     50     51   2
    54     51     52   1
    55     52     53   2
    56     53     48   1
    57     54     55   2
    58     54     56   1
    59     51     54   1
    60     49     57   1
    61     50     58   1
    62     52     59   1
    63     53     60   1
    64     21     48   1
