# Produced with molli package
@<TRIPOS>MOLECULE
B_6_Q
56 60 0 0 0
SMALL
USER_CHARGES

@<TRIPOS>ATOM
     1 C      -5.829126     4.370932     0.598313 C          1 UNL1 0.000
     2 C      -6.468318     3.259029     1.132105 C          1 UNL1 0.000
     3 C      -5.835464     2.009927     1.100968 C          1 UNL1 0.000
     4 C      -4.563691     1.845410     0.521279 C          1 UNL1 0.000
     5 C      -3.920150     3.011185     0.050494 C          1 UNL1 0.000
     6 C      -4.541797     4.262836     0.091436 C          1 UNL1 0.000
     7 N      -3.914120     0.551030     0.438396 N          1 UNL1 0.000
     8 C      -4.623363    -0.712744     0.406480 C          1 UNL1 0.000
     9 C      -5.909847    -0.829961    -0.152716 C          1 UNL1 0.000
    10 C      -6.598081    -2.049015    -0.153340 C          1 UNL1 0.000
    11 C      -6.003448    -3.178061     0.394457 C          1 UNL1 0.000
    12 C      -4.706138    -3.117898     0.887164 C          1 UNL1 0.000
    13 C      -4.026321    -1.894796     0.894477 C          1 UNL1 0.000
    14 O      -6.453994     5.585781     0.645767 O          1 UNL1 0.000
    15 C      -7.023785     5.889983    -0.628537 C          1 UNL1 0.000
    16 O      -6.692198    -4.356472     0.369445 O          1 UNL1 0.000
    17 C      -7.138322    -4.726765     1.675203 C          1 UNL1 0.000
    18 C      -2.466692     0.521528     0.387109 C          1 UNL1 0.000
    19 C      -1.764008     0.612062     1.598471 C          1 UNL1 0.000
    20 C      -0.375630     0.586760     1.605475 C          1 UNL1 0.000
    21 C       0.349354     0.498151     0.404308 C          1 UNL1 0.000
    22 C      -0.344252     0.451386    -0.841052 C          1 UNL1 0.000
    23 C      -1.765026     0.443288    -0.850062 C          1 UNL1 0.000
    24 C       0.329621     0.430152    -2.087326 C          1 UNL1 0.000
    25 C      -0.357725     0.400748    -3.301328 C          1 UNL1 0.000
    26 C      -1.741937     0.380185    -3.305887 C          1 UNL1 0.000
    27 C      -2.434290     0.397090    -2.096363 C          1 UNL1 0.000
    28 H      -7.455514     3.359645     1.573209 H          1 UNL1 0.000
    29 H      -6.351376     1.169053     1.556109 H          1 UNL1 0.000
    30 H      -2.919625     2.967522    -0.372017 H          1 UNL1 0.000
    31 H      -4.016563     5.140492    -0.273431 H          1 UNL1 0.000
    32 H      -6.391555     0.025709    -0.618039 H          1 UNL1 0.000
    33 H      -7.594142    -2.113496    -0.581327 H          1 UNL1 0.000
    34 H      -4.217789    -4.012263     1.262414 H          1 UNL1 0.000
    35 H      -3.019006    -1.883832     1.300869 H          1 UNL1 0.000
    36 H      -6.254975     5.969083    -1.405226 H          1 UNL1 0.000
    37 H      -7.524116     6.859760    -0.549751 H          1 UNL1 0.000
    38 H      -7.774319     5.142817    -0.910331 H          1 UNL1 0.000
    39 H      -6.752263    -5.724043     1.906165 H          1 UNL1 0.000
    40 H      -8.231621    -4.774271     1.661359 H          1 UNL1 0.000
    41 H      -6.832401    -4.034923     2.469632 H          1 UNL1 0.000
    42 H      -2.309918     0.691732     2.535632 H          1 UNL1 0.000
    43 H       0.149988     0.648572     2.557096 H          1 UNL1 0.000
    44 H       1.417074     0.463600    -2.129270 H          1 UNL1 0.000
    45 H       0.193069     0.402456    -4.238137 H          1 UNL1 0.000
    46 H      -2.288417     0.362298    -4.244894 H          1 UNL1 0.000
    47 H      -3.521993     0.394471    -2.133822 H          1 UNL1 0.000
    48 C       1.812077     0.452509     0.484160 C          1 UNL1 0.000
    49 N       2.459800     1.644581     0.442765 N          1 UNL1 0.000
    50 C       3.809686     1.582591     0.506140 C          1 UNL1 0.000
    51 C       4.496530     0.384877     0.611426 C          1 UNL1 0.000
    52 N       3.866077    -0.809496     0.659079 N          1 UNL1 0.000
    53 C       2.512909    -0.747251     0.593193 C          1 UNL1 0.000
    54 H       4.329910     2.532815     0.467856 H          1 UNL1 0.000
    55 H       5.578995     0.354632     0.659786 H          1 UNL1 0.000
    56 H       1.998490    -1.702051     0.626622 H          1 UNL1 0.000
@<TRIPOS>BOND
     1      1      2   2
     2      2      3   1
     3      3      4   2
     4      4      5   1
     5      5      6   2
     6      6      1   1
     7      4      7   1
     8      7      8   1
     9      8      9   2
    10      9     10   1
    11     10     11   2
    12     11     12   1
    13     12     13   2
    14     13      8   1
    15     14     15   1
    16      1     14   1
    17     16     17   1
    18     11     16   1
    19     18     19   2
    20     19     20   1
    21     20     21   2
    22     21     22   1
    23     22     23   2
    24     23     18   1
    25     22     24   1
    26     24     25   2
    27     25     26   1
    28     26     27   2
    29     27     23   1
    30      7     18   1
    31      2     28   1
    32      3     29   1
    33      5     30   1
    34      6     31   1
    35      9     32   1
    36     10     33   1
    37     12     34   1
    38     13     35   1
    39     15     36   1
    40     15     37   1
    41     15     38   1
    42     17     39   1
    43     17     40   1
    44     17     41   1
    45     19     42   1
    46     20     43   1
    47     24     44   1
    48     25     45   1
    49     26     46   1
    50     27     47   1
    51     48     49   2
    52     49     50   1
    53     50     51   2
    54     51     52   1
    55     52     53   2
    56     53     48   1
    57     50     54   1
    58     51     55   1
    59     53     56   1
    60     21     48   1
