# Produced with molli package
@<TRIPOS>MOLECULE
B_6_L
62 67 0 0 0
SMALL
USER_CHARGES

@<TRIPOS>ATOM
     1 C      -6.016260     4.289156     0.364486 C          1 UNL1 0.000
     2 C      -6.657012     3.131449    -0.064468 C          1 UNL1 0.000
     3 C      -5.965512     1.911747    -0.075459 C          1 UNL1 0.000
     4 C      -4.639248     1.813512     0.384430 C          1 UNL1 0.000
     5 C      -4.015054     3.011452     0.792203 C          1 UNL1 0.000
     6 C      -4.698411     4.232656     0.796475 C          1 UNL1 0.000
     7 N      -3.925592     0.552746     0.410904 N          1 UNL1 0.000
     8 C      -4.557829    -0.743344     0.553045 C          1 UNL1 0.000
     9 C      -5.771718    -0.922000     1.236799 C          1 UNL1 0.000
    10 C      -6.363593    -2.190386     1.368565 C          1 UNL1 0.000
    11 C      -5.736334    -3.318422     0.845265 C          1 UNL1 0.000
    12 C      -4.522591    -3.166401     0.182851 C          1 UNL1 0.000
    13 C      -3.941181    -1.902641     0.042839 C          1 UNL1 0.000
    14 O      -6.669791     5.485509     0.466535 O          1 UNL1 0.000
    15 C      -7.047687     5.992455    -0.811743 C          1 UNL1 0.000
    16 O      -6.190551    -4.605096     0.911095 O          1 UNL1 0.000
    17 C      -7.331024    -4.843323     1.724294 C          1 UNL1 0.000
    18 C      -2.476295     0.580360     0.369230 C          1 UNL1 0.000
    19 C      -1.782709     0.484015     1.585976 C          1 UNL1 0.000
    20 C      -0.393807     0.482616     1.602231 C          1 UNL1 0.000
    21 C       0.337443     0.549770     0.405409 C          1 UNL1 0.000
    22 C      -0.346710     0.624840    -0.844105 C          1 UNL1 0.000
    23 C      -1.768291     0.654791    -0.862818 C          1 UNL1 0.000
    24 C       0.333877     0.651476    -2.085312 C          1 UNL1 0.000
    25 C      -0.343694     0.698627    -3.303701 C          1 UNL1 0.000
    26 C      -1.728436     0.732561    -3.317508 C          1 UNL1 0.000
    27 C      -2.428138     0.715781    -2.112686 C          1 UNL1 0.000
    28 H      -7.697025     3.159446    -0.374734 H          1 UNL1 0.000
    29 H      -6.485051     1.036814    -0.456692 H          1 UNL1 0.000
    30 H      -2.985039     3.015222     1.138297 H          1 UNL1 0.000
    31 H      -4.198029     5.133051     1.141465 H          1 UNL1 0.000
    32 H      -6.270794    -0.077829     1.705530 H          1 UNL1 0.000
    33 H      -7.311419    -2.257717     1.892021 H          1 UNL1 0.000
    34 H      -4.015127    -4.036837    -0.225826 H          1 UNL1 0.000
    35 H      -2.993187    -1.846897    -0.485510 H          1 UNL1 0.000
    36 H      -6.166735     6.153644    -1.442576 H          1 UNL1 0.000
    37 H      -7.533125     6.960744    -0.654643 H          1 UNL1 0.000
    38 H      -7.766196     5.337434    -1.314272 H          1 UNL1 0.000
    39 H      -7.496755    -5.924663     1.755999 H          1 UNL1 0.000
    40 H      -8.223066    -4.380029     1.291185 H          1 UNL1 0.000
    41 H      -7.165982    -4.502920     2.751875 H          1 UNL1 0.000
    42 H      -2.334736     0.417318     2.520180 H          1 UNL1 0.000
    43 H       0.125419     0.417454     2.556576 H          1 UNL1 0.000
    44 H       1.422371     0.620273    -2.116880 H          1 UNL1 0.000
    45 H       0.214146     0.703175    -4.235880 H          1 UNL1 0.000
    46 H      -2.267662     0.763854    -4.259904 H          1 UNL1 0.000
    47 H      -3.516145     0.731579    -2.155715 H          1 UNL1 0.000
    48 C       1.807502     0.520008     0.492722 C          1 UNL1 0.000
    49 C       2.540048     1.712834     0.571172 C          1 UNL1 0.000
    50 C       3.938810     1.715329     0.625069 C          1 UNL1 0.000
    51 C       4.587628     0.476793     0.597702 C          1 UNL1 0.000
    52 C       3.898343    -0.733193     0.530496 C          1 UNL1 0.000
    53 C       2.491053    -0.710281     0.482864 C          1 UNL1 0.000
    54 N       5.930910     0.175462     0.624415 N          1 UNL1 0.000
    55 C       6.112936    -1.181361     0.575421 C          1 UNL1 0.000
    56 C       4.870683    -1.770715     0.520110 C          1 UNL1 0.000
    57 H       2.013950     2.666407     0.580322 H          1 UNL1 0.000
    58 H       4.490960     2.647668     0.678235 H          1 UNL1 0.000
    59 H       1.937310    -1.643723     0.423126 H          1 UNL1 0.000
    60 H       6.670907     0.862064     0.668845 H          1 UNL1 0.000
    61 H       7.106441    -1.608750     0.583349 H          1 UNL1 0.000
    62 H       4.677670    -2.834363     0.472134 H          1 UNL1 0.000
@<TRIPOS>BOND
     1      1      2   2
     2      2      3   1
     3      3      4   2
     4      4      5   1
     5      5      6   2
     6      6      1   1
     7      4      7   1
     8      7      8   1
     9      8      9   2
    10      9     10   1
    11     10     11   2
    12     11     12   1
    13     12     13   2
    14     13      8   1
    15     14     15   1
    16      1     14   1
    17     16     17   1
    18     11     16   1
    19     18     19   2
    20     19     20   1
    21     20     21   2
    22     21     22   1
    23     22     23   2
    24     23     18   1
    25     22     24   1
    26     24     25   2
    27     25     26   1
    28     26     27   2
    29     27     23   1
    30      7     18   1
    31      2     28   1
    32      3     29   1
    33      5     30   1
    34      6     31   1
    35      9     32   1
    36     10     33   1
    37     12     34   1
    38     13     35   1
    39     15     36   1
    40     15     37   1
    41     15     38   1
    42     17     39   1
    43     17     40   1
    44     17     41   1
    45     19     42   1
    46     20     43   1
    47     24     44   1
    48     25     45   1
    49     26     46   1
    50     27     47   1
    51     48     49   2
    52     49     50   1
    53     50     51   2
    54     51     52   1
    55     52     53   2
    56     53     48   1
    57     51     54   1
    58     54     55   1
    59     55     56   2
    60     56     52   1
    61     49     57   1
    62     50     58   1
    63     53     59   1
    64     54     60   1
    65     55     61   1
    66     56     62   1
    67     21     48   1
