# Produced with molli package
@<TRIPOS>MOLECULE
B_6_T
61 65 0 0 0
SMALL
USER_CHARGES

@<TRIPOS>ATOM
     1 C      -5.938375     4.278265     0.427400 C          1 UNL1 0.000
     2 C      -6.571622     3.140827    -0.064139 C          1 UNL1 0.000
     3 C      -5.896177     1.910271    -0.077141 C          1 UNL1 0.000
     4 C      -4.593130     1.779836     0.436352 C          1 UNL1 0.000
     5 C      -3.975453     2.957341     0.907899 C          1 UNL1 0.000
     6 C      -4.643188     4.186718     0.918298 C          1 UNL1 0.000
     7 N      -3.888593     0.512928     0.447619 N          1 UNL1 0.000
     8 C      -4.528064    -0.786239     0.524195 C          1 UNL1 0.000
     9 C      -5.781569    -0.979652     1.129048 C          1 UNL1 0.000
    10 C      -6.382349    -2.249402     1.189792 C          1 UNL1 0.000
    11 C      -5.723841    -3.363705     0.675855 C          1 UNL1 0.000
    12 C      -4.477620    -3.200300     0.084596 C          1 UNL1 0.000
    13 C      -3.884849    -1.936307     0.022201 C          1 UNL1 0.000
    14 O      -6.555303     5.493586     0.532367 O          1 UNL1 0.000
    15 C      -7.059390     5.965700    -0.714355 C          1 UNL1 0.000
    16 O      -6.202093    -4.643363     0.672284 O          1 UNL1 0.000
    17 C      -7.102836    -4.965184     1.724488 C          1 UNL1 0.000
    18 C      -2.439091     0.542279     0.399588 C          1 UNL1 0.000
    19 C      -1.738564     0.483864     1.614743 C          1 UNL1 0.000
    20 C      -0.349485     0.508531     1.623713 C          1 UNL1 0.000
    21 C       0.374258     0.557942     0.421480 C          1 UNL1 0.000
    22 C      -0.317058     0.578823    -0.826459 C          1 UNL1 0.000
    23 C      -1.738276     0.589245    -0.838358 C          1 UNL1 0.000
    24 C       0.356250     0.573118    -2.072140 C          1 UNL1 0.000
    25 C      -0.327898     0.566700    -3.287718 C          1 UNL1 0.000
    26 C      -1.712746     0.584852    -3.294971 C          1 UNL1 0.000
    27 C      -2.405196     0.604686    -2.086276 C          1 UNL1 0.000
    28 H      -7.595362     3.185904    -0.421950 H          1 UNL1 0.000
    29 H      -6.408607     1.054770    -0.508770 H          1 UNL1 0.000
    30 H      -2.961500     2.940791     1.297215 H          1 UNL1 0.000
    31 H      -4.145154     5.069930     1.308850 H          1 UNL1 0.000
    32 H      -6.309733    -0.147110     1.586182 H          1 UNL1 0.000
    33 H      -7.366796    -2.333411     1.638420 H          1 UNL1 0.000
    34 H      -3.951559    -4.060512    -0.321512 H          1 UNL1 0.000
    35 H      -2.905146    -1.875594    -0.443228 H          1 UNL1 0.000
    36 H      -6.273651     5.979548    -1.477714 H          1 UNL1 0.000
    37 H      -7.401687     6.994617    -0.565002 H          1 UNL1 0.000
    38 H      -7.917347     5.376253    -1.050886 H          1 UNL1 0.000
    39 H      -7.190433    -6.055420     1.763443 H          1 UNL1 0.000
    40 H      -8.096828    -4.554767     1.523571 H          1 UNL1 0.000
    41 H      -6.724981    -4.627492     2.695742 H          1 UNL1 0.000
    42 H      -2.285508     0.435576     2.553076 H          1 UNL1 0.000
    43 H       0.175486     0.484315     2.576771 H          1 UNL1 0.000
    44 H       1.444810     0.557367    -2.109090 H          1 UNL1 0.000
    45 H       0.224905     0.543985    -4.222564 H          1 UNL1 0.000
    46 H      -2.257629     0.575776    -4.234553 H          1 UNL1 0.000
    47 H      -3.493595     0.608717    -2.123719 H          1 UNL1 0.000
    48 C       1.844007     0.583341     0.497958 C          1 UNL1 0.000
    49 C       2.533016     1.802865     0.560040 C          1 UNL1 0.000
    50 C       3.929779     1.833671     0.581332 C          1 UNL1 0.000
    51 C       4.664145     0.643826     0.547761 C          1 UNL1 0.000
    52 C       3.980977    -0.576849     0.500518 C          1 UNL1 0.000
    53 C       2.584242    -0.606684     0.480060 C          1 UNL1 0.000
    54 C       6.163657     0.663998     0.528694 C          1 UNL1 0.000
    55 H       1.979601     2.739753     0.574608 H          1 UNL1 0.000
    56 H       4.436862     2.795126     0.614871 H          1 UNL1 0.000
    57 H       4.532896    -1.513544     0.469159 H          1 UNL1 0.000
    58 H       2.071933    -1.565389     0.431011 H          1 UNL1 0.000
    59 H       6.530093     0.296551    -0.435308 H          1 UNL1 0.000
    60 H       6.562533     0.033883     1.329940 H          1 UNL1 0.000
    61 H       6.553208     1.676672     0.675740 H          1 UNL1 0.000
@<TRIPOS>BOND
     1      1      2   2
     2      2      3   1
     3      3      4   2
     4      4      5   1
     5      5      6   2
     6      6      1   1
     7      4      7   1
     8      7      8   1
     9      8      9   2
    10      9     10   1
    11     10     11   2
    12     11     12   1
    13     12     13   2
    14     13      8   1
    15     14     15   1
    16      1     14   1
    17     16     17   1
    18     11     16   1
    19     18     19   2
    20     19     20   1
    21     20     21   2
    22     21     22   1
    23     22     23   2
    24     23     18   1
    25     22     24   1
    26     24     25   2
    27     25     26   1
    28     26     27   2
    29     27     23   1
    30      7     18   1
    31      2     28   1
    32      3     29   1
    33      5     30   1
    34      6     31   1
    35      9     32   1
    36     10     33   1
    37     12     34   1
    38     13     35   1
    39     15     36   1
    40     15     37   1
    41     15     38   1
    42     17     39   1
    43     17     40   1
    44     17     41   1
    45     19     42   1
    46     20     43   1
    47     24     44   1
    48     25     45   1
    49     26     46   1
    50     27     47   1
    51     48     49   2
    52     49     50   1
    53     50     51   2
    54     51     52   1
    55     52     53   2
    56     53     48   1
    57     51     54   1
    58     49     55   1
    59     50     56   1
    60     52     57   1
    61     53     58   1
    62     54     59   1
    63     54     60   1
    64     54     61   1
    65     21     48   1
