# Produced with molli package
@<TRIPOS>MOLECULE
B_7_K
58 61 0 0 0
SMALL
USER_CHARGES

@<TRIPOS>ATOM
     1 C      -8.181878     4.293508     1.718183 C          1 UNL1 0.000
     2 C      -8.806654     3.158432     1.208002 C          1 UNL1 0.000
     3 C      -8.147488     1.919250     1.237147 C          1 UNL1 0.000
     4 C      -6.868769     1.782885     1.804752 C          1 UNL1 0.000
     5 C      -6.261081     2.953943     2.303764 C          1 UNL1 0.000
     6 C      -6.913661     4.189858     2.274352 C          1 UNL1 0.000
     7 N      -6.174325     0.515102     1.855499 N          1 UNL1 0.000
     8 C      -6.823362    -0.774666     1.962453 C          1 UNL1 0.000
     9 C      -8.082447    -0.941221     2.561956 C          1 UNL1 0.000
    10 C      -8.683662    -2.207734     2.674052 C          1 UNL1 0.000
    11 C      -8.024311    -3.344850     2.213162 C          1 UNL1 0.000
    12 C      -6.771529    -3.203918     1.625804 C          1 UNL1 0.000
    13 C      -6.180273    -1.942711     1.505239 C          1 UNL1 0.000
    14 O      -8.773833     5.524407     1.774972 O          1 UNL1 0.000
    15 C      -9.293056     5.954515     0.519733 C          1 UNL1 0.000
    16 O      -8.481948    -4.630578     2.273303 O          1 UNL1 0.000
    17 C      -9.652319    -4.860037     3.045701 C          1 UNL1 0.000
    18 C      -4.737965     0.536022     1.800637 C          1 UNL1 0.000
    19 C      -3.978474     0.370599     2.965253 C          1 UNL1 0.000
    20 C      -2.581998     0.363439     2.900312 C          1 UNL1 0.000
    21 C      -1.917109     0.494891     1.671415 C          1 UNL1 0.000
    22 C      -2.687815     0.648448     0.509529 C          1 UNL1 0.000
    23 C      -4.083223     0.687726     0.573471 C          1 UNL1 0.000
    24 C      -0.443900     0.432112     1.660352 C          1 UNL1 0.000
    25 C       0.336773     0.707971     0.604017 C          1 UNL1 0.000
    26 H      -9.811919     3.211040     0.802216 H          1 UNL1 0.000
    27 H      -8.649340     1.062000     0.796091 H          1 UNL1 0.000
    28 H      -5.269117     2.921109     2.746507 H          1 UNL1 0.000
    29 H      -6.424939     5.069931     2.683347 H          1 UNL1 0.000
    30 H      -8.611692    -0.089430     2.980971 H          1 UNL1 0.000
    31 H      -9.664731    -2.266831     3.133478 H          1 UNL1 0.000
    32 H      -6.240564    -4.081334     1.264679 H          1 UNL1 0.000
    33 H      -5.199593    -1.895831     1.039223 H          1 UNL1 0.000
    34 H      -8.542873     5.862393    -0.273579 H          1 UNL1 0.000
    35 H      -9.553080     7.013539     0.614211 H          1 UNL1 0.000
    36 H     -10.205127     5.409951     0.258641 H          1 UNL1 0.000
    37 H      -9.812638    -5.941674     3.092998 H          1 UNL1 0.000
    38 H     -10.528928    -4.411725     2.567883 H          1 UNL1 0.000
    39 H      -9.530643    -4.497762     4.071907 H          1 UNL1 0.000
    40 H      -4.477769     0.257823     3.924384 H          1 UNL1 0.000
    41 H      -2.021174     0.248265     3.825374 H          1 UNL1 0.000
    42 H      -2.225627     0.727333    -0.469683 H          1 UNL1 0.000
    43 H      -4.663970     0.798743    -0.338791 H          1 UNL1 0.000
    44 H       0.020691     0.150762     2.604290 H          1 UNL1 0.000
    45 H      -0.060526     1.023590    -0.354956 H          1 UNL1 0.000
    46 C       1.796343     0.639240     0.671782 C          1 UNL1 0.000
    47 C       2.538171     1.821882     0.557855 C          1 UNL1 0.000
    48 C       3.933742     1.783006     0.571603 C          1 UNL1 0.000
    49 C       4.583314     0.550313     0.698226 C          1 UNL1 0.000
    50 C       3.853929    -0.638586     0.821096 C          1 UNL1 0.000
    51 C       2.457173    -0.588882     0.806882 C          1 UNL1 0.000
    52 N       6.046550     0.501976     0.690504 N          1 UNL1 0.000
    53 O       6.592320    -0.490785     1.188959 O          1 UNL1 0.000
    54 O       6.648888     1.460651     0.180995 O          1 UNL1 0.000
    55 H       2.030256     2.779514     0.457378 H          1 UNL1 0.000
    56 H       4.493376     2.712027     0.481220 H          1 UNL1 0.000
    57 H       4.352901    -1.601267     0.914161 H          1 UNL1 0.000
    58 H       1.887851    -1.513638     0.884683 H          1 UNL1 0.000
@<TRIPOS>BOND
     1      1      2   2
     2      2      3   1
     3      3      4   2
     4      4      5   1
     5      5      6   2
     6      6      1   1
     7      4      7   1
     8      7      8   1
     9      8      9   2
    10      9     10   1
    11     10     11   2
    12     11     12   1
    13     12     13   2
    14     13      8   1
    15     14     15   1
    16      1     14   1
    17     16     17   1
    18     11     16   1
    19     18     19   2
    20     19     20   1
    21     20     21   2
    22     21     22   1
    23     22     23   2
    24     23     18   1
    25     21     24   1
    26     24     25   2
    27      7     18   1
    28      2     26   1
    29      3     27   1
    30      5     28   1
    31      6     29   1
    32      9     30   1
    33     10     31   1
    34     12     32   1
    35     13     33   1
    36     15     34   1
    37     15     35   1
    38     15     36   1
    39     17     37   1
    40     17     38   1
    41     17     39   1
    42     19     40   1
    43     20     41   1
    44     22     42   1
    45     23     43   1
    46     24     44   1
    47     25     45   1
    48     46     47   2
    49     47     48   1
    50     48     49   2
    51     49     50   1
    52     50     51   2
    53     51     46   1
    54     52     53   2
    55     52     54   1
    56     49     52   1
    57     47     55   1
    58     48     56   1
    59     50     57   1
    60     51     58   1
    61     25     46   1
