# Produced with molli package
@<TRIPOS>MOLECULE
B_7_S
61 64 0 0 0
SMALL
USER_CHARGES

@<TRIPOS>ATOM
     1 C      -8.148333     4.277110     1.544351 C          1 UNL1 0.000
     2 C      -8.764927     3.134137     1.043229 C          1 UNL1 0.000
     3 C      -8.083036     1.907967     1.050597 C          1 UNL1 0.000
     4 C      -6.790509     1.790546     1.592245 C          1 UNL1 0.000
     5 C      -6.187613     2.970934     2.073756 C          1 UNL1 0.000
     6 C      -6.862459     4.195854     2.063187 C          1 UNL1 0.000
     7 N      -6.089472     0.525832     1.647300 N          1 UNL1 0.000
     8 C      -6.743785    -0.758392     1.773597 C          1 UNL1 0.000
     9 C      -7.979648    -0.914525     2.423529 C          1 UNL1 0.000
    10 C      -8.590746    -2.173404     2.548777 C          1 UNL1 0.000
    11 C      -7.962803    -3.312385     2.050522 C          1 UNL1 0.000
    12 C      -6.736349    -3.180520     1.406414 C          1 UNL1 0.000
    13 C      -6.133118    -1.925693     1.275573 C          1 UNL1 0.000
    14 O      -8.777535     5.486965     1.640506 O          1 UNL1 0.000
    15 C      -9.273697     5.954804     0.389286 C          1 UNL1 0.000
    16 O      -8.440902    -4.590738     2.118698 O          1 UNL1 0.000
    17 C      -9.468632    -4.830677     3.071588 C          1 UNL1 0.000
    18 C      -4.651527     0.544802     1.629362 C          1 UNL1 0.000
    19 C      -3.922692     0.335939     2.808102 C          1 UNL1 0.000
    20 C      -2.524775     0.364124     2.788461 C          1 UNL1 0.000
    21 C      -1.830043     0.565785     1.587882 C          1 UNL1 0.000
    22 C      -2.564837     0.775389     0.411927 C          1 UNL1 0.000
    23 C      -3.962613     0.771807     0.431880 C          1 UNL1 0.000
    24 C      -0.359447     0.615167     1.617032 C          1 UNL1 0.000
    25 C       0.426945     0.251689     0.591981 C          1 UNL1 0.000
    26 H      -9.782770     3.169974     0.668036 H          1 UNL1 0.000
    27 H      -8.582375     1.042243     0.623153 H          1 UNL1 0.000
    28 H      -5.185683     2.952656     2.494699 H          1 UNL1 0.000
    29 H      -6.380653     5.082773     2.465400 H          1 UNL1 0.000
    30 H      -8.481257    -0.058722     2.868104 H          1 UNL1 0.000
    31 H      -9.555893    -2.226519     3.041577 H          1 UNL1 0.000
    32 H      -6.235339    -4.060607     1.011015 H          1 UNL1 0.000
    33 H      -5.173761    -1.878071     0.766868 H          1 UNL1 0.000
    34 H      -8.472912     6.003270    -0.356637 H          1 UNL1 0.000
    35 H      -9.653380     6.969891     0.542657 H          1 UNL1 0.000
    36 H     -10.104524     5.341888     0.027671 H          1 UNL1 0.000
    37 H      -9.608482    -5.913686     3.144471 H          1 UNL1 0.000
    38 H     -10.415425    -4.391654     2.742312 H          1 UNL1 0.000
    39 H      -9.187218    -4.465249     4.065128 H          1 UNL1 0.000
    40 H      -4.447649     0.174283     3.746386 H          1 UNL1 0.000
    41 H      -1.985533     0.220597     3.722226 H          1 UNL1 0.000
    42 H      -2.062876     0.956235    -0.534892 H          1 UNL1 0.000
    43 H      -4.517503     0.929463    -0.489417 H          1 UNL1 0.000
    44 H       0.085162     0.955650     2.550309 H          1 UNL1 0.000
    45 H       0.024361    -0.133121    -0.340399 H          1 UNL1 0.000
    46 C       1.886581     0.327069     0.661327 C          1 UNL1 0.000
    47 C       2.542251     1.560371     0.682913 C          1 UNL1 0.000
    48 C       3.939694     1.612709     0.689723 C          1 UNL1 0.000
    49 C       4.701138     0.434161     0.677437 C          1 UNL1 0.000
    50 C       4.040478    -0.798983     0.687730 C          1 UNL1 0.000
    51 C       2.640746    -0.849692     0.669993 C          1 UNL1 0.000
    52 C       6.190763     0.567364     0.651877 C          1 UNL1 0.000
    53 C       7.066297    -0.625706     0.358797 C          1 UNL1 0.000
    54 O       6.700090     1.666455     0.861109 O          1 UNL1 0.000
    55 H       1.974927     2.488677     0.676786 H          1 UNL1 0.000
    56 H       4.432243     2.584065     0.693467 H          1 UNL1 0.000
    57 H       4.577615    -1.740989     0.714926 H          1 UNL1 0.000
    58 H       2.142267    -1.817190     0.665744 H          1 UNL1 0.000
    59 H       7.754353    -0.358861    -0.449499 H          1 UNL1 0.000
    60 H       6.516503    -1.505512     0.028120 H          1 UNL1 0.000
    61 H       7.636714    -0.877723     1.256687 H          1 UNL1 0.000
@<TRIPOS>BOND
     1      1      2   2
     2      2      3   1
     3      3      4   2
     4      4      5   1
     5      5      6   2
     6      6      1   1
     7      4      7   1
     8      7      8   1
     9      8      9   2
    10      9     10   1
    11     10     11   2
    12     11     12   1
    13     12     13   2
    14     13      8   1
    15     14     15   1
    16      1     14   1
    17     16     17   1
    18     11     16   1
    19     18     19   2
    20     19     20   1
    21     20     21   2
    22     21     22   1
    23     22     23   2
    24     23     18   1
    25     21     24   1
    26     24     25   2
    27      7     18   1
    28      2     26   1
    29      3     27   1
    30      5     28   1
    31      6     29   1
    32      9     30   1
    33     10     31   1
    34     12     32   1
    35     13     33   1
    36     15     34   1
    37     15     35   1
    38     15     36   1
    39     17     37   1
    40     17     38   1
    41     17     39   1
    42     19     40   1
    43     20     41   1
    44     22     42   1
    45     23     43   1
    46     24     44   1
    47     25     45   1
    48     46     47   2
    49     47     48   1
    50     48     49   2
    51     49     50   1
    52     50     51   2
    53     51     46   1
    54     49     52   1
    55     52     53   1
    56     52     54   2
    57     47     55   1
    58     48     56   1
    59     50     57   1
    60     51     58   1
    61     53     59   1
    62     53     60   1
    63     53     61   1
    64     25     46   1
