# Produced with molli package
@<TRIPOS>MOLECULE
B_7_M
57 60 0 0 0
SMALL
USER_CHARGES

@<TRIPOS>ATOM
     1 C      -8.204911     4.326204     1.987874 C          1 UNL1 0.000
     2 C      -8.879958     3.187885     2.407830 C          1 UNL1 0.000
     3 C      -8.225112     1.947731     2.415467 C          1 UNL1 0.000
     4 C      -6.897125     1.809861     1.970931 C          1 UNL1 0.000
     5 C      -6.225635     3.002808     1.617029 C          1 UNL1 0.000
     6 C      -6.865940     4.248142     1.632573 C          1 UNL1 0.000
     7 N      -6.220239     0.526370     1.905800 N          1 UNL1 0.000
     8 C      -6.888059    -0.761476     1.820881 C          1 UNL1 0.000
     9 C      -8.170820    -0.923590     1.265698 C          1 UNL1 0.000
    10 C      -8.804635    -2.175018     1.232677 C          1 UNL1 0.000
    11 C      -8.148588    -3.295700     1.724850 C          1 UNL1 0.000
    12 C      -6.850393    -3.190458     2.203113 C          1 UNL1 0.000
    13 C      -6.235219    -1.936068     2.260028 C          1 UNL1 0.000
    14 O      -8.856336     5.527567     2.018234 O          1 UNL1 0.000
    15 C      -9.186102     5.950510     0.694223 C          1 UNL1 0.000
    16 O      -8.750013    -4.519717     1.648208 O          1 UNL1 0.000
    17 C      -9.311343    -4.886957     2.909504 C          1 UNL1 0.000
    18 C      -4.780256     0.520848     1.854957 C          1 UNL1 0.000
    19 C      -4.021529     0.623510     3.027984 C          1 UNL1 0.000
    20 C      -2.623104     0.570379     2.971532 C          1 UNL1 0.000
    21 C      -1.953971     0.446210     1.743919 C          1 UNL1 0.000
    22 C      -2.722411     0.351558     0.574316 C          1 UNL1 0.000
    23 C      -4.119830     0.383299     0.627628 C          1 UNL1 0.000
    24 C      -0.480034     0.368746     1.740463 C          1 UNL1 0.000
    25 C       0.297344     0.625365     0.676206 C          1 UNL1 0.000
    26 H      -9.913883     3.260080     2.732988 H          1 UNL1 0.000
    27 H      -8.778769     1.094365     2.795307 H          1 UNL1 0.000
    28 H      -5.181497     2.988058     1.315339 H          1 UNL1 0.000
    29 H      -6.311574     5.144666     1.371508 H          1 UNL1 0.000
    30 H      -8.695978    -0.083063     0.821419 H          1 UNL1 0.000
    31 H      -9.801237    -2.270194     0.811522 H          1 UNL1 0.000
    32 H      -6.312098    -4.074838     2.530648 H          1 UNL1 0.000
    33 H      -5.225608    -1.896947     2.660018 H          1 UNL1 0.000
    34 H      -8.287885     6.156474     0.102147 H          1 UNL1 0.000
    35 H      -9.757879     6.880398     0.772031 H          1 UNL1 0.000
    36 H      -9.814907     5.208500     0.189116 H          1 UNL1 0.000
    37 H      -9.337988    -5.979831     2.960738 H          1 UNL1 0.000
    38 H     -10.338672    -4.514622     2.973291 H          1 UNL1 0.000
    39 H      -8.731627    -4.524458     3.766746 H          1 UNL1 0.000
    40 H      -4.522396     0.714917     3.988627 H          1 UNL1 0.000
    41 H      -2.063072     0.626883     3.902636 H          1 UNL1 0.000
    42 H      -2.253060     0.236566    -0.398613 H          1 UNL1 0.000
    43 H      -4.697589     0.305567    -0.290103 H          1 UNL1 0.000
    44 H      -0.018577     0.101114     2.689472 H          1 UNL1 0.000
    45 H      -0.109844     0.931388    -0.282459 H          1 UNL1 0.000
    46 C       1.758820     0.550478     0.723283 C          1 UNL1 0.000
    47 C       2.419018    -0.683273     0.724593 C          1 UNL1 0.000
    48 C       3.817103    -0.733785     0.694904 C          1 UNL1 0.000
    49 C       4.562735     0.449909     0.669601 C          1 UNL1 0.000
    50 C       3.904149     1.683495     0.687520 C          1 UNL1 0.000
    51 C       2.507321     1.732324     0.712374 C          1 UNL1 0.000
    52 C       5.994209     0.401210     0.609931 C          1 UNL1 0.000
    53 N       7.153637     0.365297     0.553997 N          1 UNL1 0.000
    54 H       1.850889    -1.611376     0.726240 H          1 UNL1 0.000
    55 H       4.316628    -1.700915     0.678582 H          1 UNL1 0.000
    56 H       4.470042     2.613122     0.670848 H          1 UNL1 0.000
    57 H       2.006549     2.698435     0.714459 H          1 UNL1 0.000
@<TRIPOS>BOND
     1      1      2   2
     2      2      3   1
     3      3      4   2
     4      4      5   1
     5      5      6   2
     6      6      1   1
     7      4      7   1
     8      7      8   1
     9      8      9   2
    10      9     10   1
    11     10     11   2
    12     11     12   1
    13     12     13   2
    14     13      8   1
    15     14     15   1
    16      1     14   1
    17     16     17   1
    18     11     16   1
    19     18     19   2
    20     19     20   1
    21     20     21   2
    22     21     22   1
    23     22     23   2
    24     23     18   1
    25     21     24   1
    26     24     25   2
    27      7     18   1
    28      2     26   1
    29      3     27   1
    30      5     28   1
    31      6     29   1
    32      9     30   1
    33     10     31   1
    34     12     32   1
    35     13     33   1
    36     15     34   1
    37     15     35   1
    38     15     36   1
    39     17     37   1
    40     17     38   1
    41     17     39   1
    42     19     40   1
    43     20     41   1
    44     22     42   1
    45     23     43   1
    46     24     44   1
    47     25     45   1
    48     46     47   2
    49     47     48   1
    50     48     49   2
    51     49     50   1
    52     50     51   2
    53     51     46   1
    54     52     53   3
    55     49     52   1
    56     47     54   1
    57     48     55   1
    58     50     56   1
    59     51     57   1
    60     25     46   1
