# Produced with molli package
@<TRIPOS>MOLECULE
B_7_L
60 64 0 0 0
SMALL
USER_CHARGES

@<TRIPOS>ATOM
     1 C      -8.307433     4.150758     2.010755 C          1 UNL1 0.000
     2 C      -8.781707     3.019248     2.669341 C          1 UNL1 0.000
     3 C      -8.062874     1.819286     2.621017 C          1 UNL1 0.000
     4 C      -6.850571     1.727397     1.917027 C          1 UNL1 0.000
     5 C      -6.362415     2.900765     1.309893 C          1 UNL1 0.000
     6 C      -7.080496     4.101152     1.356249 C          1 UNL1 0.000
     7 N      -6.117013     0.487127     1.826815 N          1 UNL1 0.000
     8 C      -6.764515    -0.804208     1.779389 C          1 UNL1 0.000
     9 C      -8.020461    -0.982419     1.170013 C          1 UNL1 0.000
    10 C      -8.638838    -2.237274     1.140464 C          1 UNL1 0.000
    11 C      -8.005521    -3.330523     1.721374 C          1 UNL1 0.000
    12 C      -6.744330    -3.197679     2.288754 C          1 UNL1 0.000
    13 C      -6.133246    -1.942011     2.322898 C          1 UNL1 0.000
    14 O      -9.082767     5.273903     2.100722 O          1 UNL1 0.000
    15 C      -9.165146     6.013888     0.884545 C          1 UNL1 0.000
    16 O      -8.590609    -4.565315     1.673862 O          1 UNL1 0.000
    17 C      -9.429152    -4.748508     2.815313 C          1 UNL1 0.000
    18 C      -4.684221     0.536550     1.730175 C          1 UNL1 0.000
    19 C      -3.912999     1.008405     2.798907 C          1 UNL1 0.000
    20 C      -2.517407     1.034350     2.706273 C          1 UNL1 0.000
    21 C      -1.862146     0.615080     1.537970 C          1 UNL1 0.000
    22 C      -2.642002     0.153538     0.468854 C          1 UNL1 0.000
    23 C      -4.036333     0.105859     0.565773 C          1 UNL1 0.000
    24 C      -0.388877     0.658900     1.507754 C          1 UNL1 0.000
    25 C       0.385429     0.395493     0.442494 C          1 UNL1 0.000
    26 H      -9.721839     3.064710     3.212474 H          1 UNL1 0.000
    27 H      -8.458575     0.957562     3.152341 H          1 UNL1 0.000
    28 H      -5.417387     2.891188     0.771719 H          1 UNL1 0.000
    29 H      -6.654397     4.980891     0.885441 H          1 UNL1 0.000
    30 H      -8.522081    -0.147094     0.687952 H          1 UNL1 0.000
    31 H      -9.604034    -2.357759     0.657893 H          1 UNL1 0.000
    32 H      -6.237123    -4.062047     2.706607 H          1 UNL1 0.000
    33 H      -5.156198    -1.859093     2.792956 H          1 UNL1 0.000
    34 H      -8.244474     6.575432     0.698845 H          1 UNL1 0.000
    35 H      -9.979591     6.737183     0.988703 H          1 UNL1 0.000
    36 H      -9.402627     5.362216     0.035759 H          1 UNL1 0.000
    37 H      -9.765630    -5.789591     2.820605 H          1 UNL1 0.000
    38 H     -10.313075    -4.104653     2.754083 H          1 UNL1 0.000
    39 H      -8.887865    -4.564623     3.750642 H          1 UNL1 0.000
    40 H      -4.398444     1.331725     3.716399 H          1 UNL1 0.000
    41 H      -1.947970     1.384642     3.564580 H          1 UNL1 0.000
    42 H      -2.187579    -0.184027    -0.457647 H          1 UNL1 0.000
    43 H      -4.620934    -0.253629    -0.277692 H          1 UNL1 0.000
    44 H       0.090247     0.919356     2.450507 H          1 UNL1 0.000
    45 H      -0.011024     0.114631    -0.526521 H          1 UNL1 0.000
    46 C       1.847378     0.440208     0.524750 C          1 UNL1 0.000
    47 C       2.519572     1.657882     0.665359 C          1 UNL1 0.000
    48 C       3.916874     1.712807     0.726264 C          1 UNL1 0.000
    49 C       4.615808     0.503205     0.644291 C          1 UNL1 0.000
    50 C       3.976106    -0.728553     0.506910 C          1 UNL1 0.000
    51 C       2.569516    -0.759991     0.443143 C          1 UNL1 0.000
    52 N       5.969655     0.253786     0.674002 N          1 UNL1 0.000
    53 C       6.206189    -1.091196     0.565899 C          1 UNL1 0.000
    54 C       4.989434    -1.725358     0.461726 C          1 UNL1 0.000
    55 H       1.954746     2.586557     0.720491 H          1 UNL1 0.000
    56 H       4.431568     2.662169     0.830264 H          1 UNL1 0.000
    57 H       2.054090    -1.710237     0.337407 H          1 UNL1 0.000
    58 H       6.681149     0.965686     0.763429 H          1 UNL1 0.000
    59 H       7.215594    -1.479562     0.572047 H          1 UNL1 0.000
    60 H       4.839728    -2.792410     0.362588 H          1 UNL1 0.000
@<TRIPOS>BOND
     1      1      2   2
     2      2      3   1
     3      3      4   2
     4      4      5   1
     5      5      6   2
     6      6      1   1
     7      4      7   1
     8      7      8   1
     9      8      9   2
    10      9     10   1
    11     10     11   2
    12     11     12   1
    13     12     13   2
    14     13      8   1
    15     14     15   1
    16      1     14   1
    17     16     17   1
    18     11     16   1
    19     18     19   2
    20     19     20   1
    21     20     21   2
    22     21     22   1
    23     22     23   2
    24     23     18   1
    25     21     24   1
    26     24     25   2
    27      7     18   1
    28      2     26   1
    29      3     27   1
    30      5     28   1
    31      6     29   1
    32      9     30   1
    33     10     31   1
    34     12     32   1
    35     13     33   1
    36     15     34   1
    37     15     35   1
    38     15     36   1
    39     17     37   1
    40     17     38   1
    41     17     39   1
    42     19     40   1
    43     20     41   1
    44     22     42   1
    45     23     43   1
    46     24     44   1
    47     25     45   1
    48     46     47   2
    49     47     48   1
    50     48     49   2
    51     49     50   1
    52     50     51   2
    53     51     46   1
    54     49     52   1
    55     52     53   1
    56     53     54   2
    57     54     50   1
    58     47     55   1
    59     48     56   1
    60     51     57   1
    61     52     58   1
    62     53     59   1
    63     54     60   1
    64     25     46   1
