# Produced with molli package
@<TRIPOS>MOLECULE
B_7_T
59 62 0 0 0
SMALL
USER_CHARGES

@<TRIPOS>ATOM
     1 C      -8.175063     4.272178     1.586790 C          1 UNL1 0.000
     2 C      -8.721608     3.136809     0.990505 C          1 UNL1 0.000
     3 C      -8.055291     1.905371     1.075567 C          1 UNL1 0.000
     4 C      -6.836287     1.784686     1.762486 C          1 UNL1 0.000
     5 C      -6.310815     2.940380     2.368181 C          1 UNL1 0.000
     6 C      -6.979030     4.164940     2.291626 C          1 UNL1 0.000
     7 N      -6.121079     0.533973     1.827914 N          1 UNL1 0.000
     8 C      -6.784741    -0.740462     1.958014 C          1 UNL1 0.000
     9 C      -7.988530    -0.880359     2.668121 C          1 UNL1 0.000
    10 C      -8.613065    -2.129633     2.808557 C          1 UNL1 0.000
    11 C      -8.040864    -3.268924     2.246037 C          1 UNL1 0.000
    12 C      -6.848977    -3.146522     1.534834 C          1 UNL1 0.000
    13 C      -6.226796    -1.902302     1.395531 C          1 UNL1 0.000
    14 O      -8.730857     5.521204     1.572235 O          1 UNL1 0.000
    15 C      -9.548805     5.814845     0.445573 C          1 UNL1 0.000
    16 O      -8.536162    -4.540975     2.313502 O          1 UNL1 0.000
    17 C      -9.668000    -4.746323     3.148443 C          1 UNL1 0.000
    18 C      -4.684370     0.566094     1.761925 C          1 UNL1 0.000
    19 C      -3.910769     0.090347     2.829869 C          1 UNL1 0.000
    20 C      -2.515313     0.139469     2.769868 C          1 UNL1 0.000
    21 C      -1.868286     0.632684     1.630260 C          1 UNL1 0.000
    22 C      -2.640517     1.110202     0.564021 C          1 UNL1 0.000
    23 C      -4.036277     1.083571     0.631316 C          1 UNL1 0.000
    24 C      -0.401495     0.687280     1.614030 C          1 UNL1 0.000
    25 C       0.340518     0.393177     0.536658 C          1 UNL1 0.000
    26 H      -9.666633     3.175347     0.459113 H          1 UNL1 0.000
    27 H      -8.489213     1.042518     0.575895 H          1 UNL1 0.000
    28 H      -5.375862     2.896159     2.921618 H          1 UNL1 0.000
    29 H      -6.553338     5.041394     2.773397 H          1 UNL1 0.000
    30 H      -8.445521    -0.017569     3.147036 H          1 UNL1 0.000
    31 H      -9.541449    -2.173726     3.367888 H          1 UNL1 0.000
    32 H      -6.393417    -4.026544     1.087459 H          1 UNL1 0.000
    33 H      -5.301032    -1.852225     0.827301 H          1 UNL1 0.000
    34 H      -9.042365     5.563862    -0.493026 H          1 UNL1 0.000
    35 H      -9.737458     6.892877     0.443804 H          1 UNL1 0.000
    36 H     -10.515118     5.307094     0.520034 H          1 UNL1 0.000
    37 H      -9.890319    -5.817896     3.150954 H          1 UNL1 0.000
    38 H     -10.545837    -4.224143     2.754765 H          1 UNL1 0.000
    39 H      -9.458960    -4.447941     4.181166 H          1 UNL1 0.000
    40 H      -4.397205    -0.296892     3.721720 H          1 UNL1 0.000
    41 H      -1.939087    -0.219182     3.619816 H          1 UNL1 0.000
    42 H      -2.166920     1.517927    -0.325548 H          1 UNL1 0.000
    43 H      -4.621042     1.452438    -0.207722 H          1 UNL1 0.000
    44 H       0.074987     0.955459     2.555148 H          1 UNL1 0.000
    45 H      -0.097833     0.076151    -0.405277 H          1 UNL1 0.000
    46 C       1.802059     0.440257     0.582134 C          1 UNL1 0.000
    47 C       2.534148    -0.749638     0.559726 C          1 UNL1 0.000
    48 C       3.930437    -0.719106     0.605151 C          1 UNL1 0.000
    49 C       4.611063     0.501838     0.676102 C          1 UNL1 0.000
    50 C       3.874460     1.692649     0.684822 C          1 UNL1 0.000
    51 C       2.478127     1.662322     0.643443 C          1 UNL1 0.000
    52 C       6.110150     0.545377     0.698503 C          1 UNL1 0.000
    53 H       2.022798    -1.708247     0.513403 H          1 UNL1 0.000
    54 H       4.480945    -1.656801     0.587114 H          1 UNL1 0.000
    55 H       4.384306     2.652620     0.723833 H          1 UNL1 0.000
    56 H       1.923449     2.597574     0.652317 H          1 UNL1 0.000
    57 H       6.460688     1.243977     1.465335 H          1 UNL1 0.000
    58 H       6.490284     0.862724    -0.277486 H          1 UNL1 0.000
    59 H       6.534049    -0.436968     0.931665 H          1 UNL1 0.000
@<TRIPOS>BOND
     1      1      2   2
     2      2      3   1
     3      3      4   2
     4      4      5   1
     5      5      6   2
     6      6      1   1
     7      4      7   1
     8      7      8   1
     9      8      9   2
    10      9     10   1
    11     10     11   2
    12     11     12   1
    13     12     13   2
    14     13      8   1
    15     14     15   1
    16      1     14   1
    17     16     17   1
    18     11     16   1
    19     18     19   2
    20     19     20   1
    21     20     21   2
    22     21     22   1
    23     22     23   2
    24     23     18   1
    25     21     24   1
    26     24     25   2
    27      7     18   1
    28      2     26   1
    29      3     27   1
    30      5     28   1
    31      6     29   1
    32      9     30   1
    33     10     31   1
    34     12     32   1
    35     13     33   1
    36     15     34   1
    37     15     35   1
    38     15     36   1
    39     17     37   1
    40     17     38   1
    41     17     39   1
    42     19     40   1
    43     20     41   1
    44     22     42   1
    45     23     43   1
    46     24     44   1
    47     25     45   1
    48     46     47   2
    49     47     48   1
    50     48     49   2
    51     49     50   1
    52     50     51   2
    53     51     46   1
    54     49     52   1
    55     47     53   1
    56     48     54   1
    57     50     55   1
    58     51     56   1
    59     52     57   1
    60     52     58   1
    61     52     59   1
    62     25     46   1
