# Produced with molli package
@<TRIPOS>MOLECULE
B_7_P
60 63 0 0 0
SMALL
USER_CHARGES

@<TRIPOS>ATOM
     1 C      -8.223492     4.163177     1.722300 C          1 UNL1 0.000
     2 C      -8.788345     3.032228     1.136332 C          1 UNL1 0.000
     3 C      -8.102413     1.809147     1.163734 C          1 UNL1 0.000
     4 C      -6.849198     1.690186     1.788225 C          1 UNL1 0.000
     5 C      -6.305499     2.846658     2.379336 C          1 UNL1 0.000
     6 C      -6.991342     4.064112     2.359790 C          1 UNL1 0.000
     7 N      -6.122094     0.443890     1.807510 N          1 UNL1 0.000
     8 C      -6.760990    -0.847685     1.888191 C          1 UNL1 0.000
     9 C      -7.960067    -1.042351     2.593223 C          1 UNL1 0.000
    10 C      -8.551791    -2.311608     2.690747 C          1 UNL1 0.000
    11 C      -7.947651    -3.416247     2.093386 C          1 UNL1 0.000
    12 C      -6.765913    -3.239435     1.378813 C          1 UNL1 0.000
    13 C      -6.175544    -1.976140     1.284904 C          1 UNL1 0.000
    14 O      -8.822016     5.391681     1.768189 O          1 UNL1 0.000
    15 C      -9.459366     5.773882     0.553104 C          1 UNL1 0.000
    16 O      -8.414536    -4.700496     2.122092 O          1 UNL1 0.000
    17 C      -9.354735    -5.005103     3.144469 C          1 UNL1 0.000
    18 C      -4.687071     0.490672     1.748873 C          1 UNL1 0.000
    19 C      -3.917859     0.121123     2.859638 C          1 UNL1 0.000
    20 C      -2.522299     0.170277     2.799685 C          1 UNL1 0.000
    21 C      -1.868219     0.557086     1.621465 C          1 UNL1 0.000
    22 C      -2.642803     0.929603     0.514186 C          1 UNL1 0.000
    23 C      -4.038995     0.903482     0.578059 C          1 UNL1 0.000
    24 C      -0.398027     0.608607     1.617533 C          1 UNL1 0.000
    25 C       0.368711     0.496833     0.521621 C          1 UNL1 0.000
    26 H      -9.765387     3.071516     0.666061 H          1 UNL1 0.000
    27 H      -8.554092     0.950781     0.672445 H          1 UNL1 0.000
    28 H      -5.342261     2.810336     2.882188 H          1 UNL1 0.000
    29 H      -6.553528     4.938352     2.834168 H          1 UNL1 0.000
    30 H      -8.439104    -0.209103     3.101714 H          1 UNL1 0.000
    31 H      -9.483364    -2.400850     3.239495 H          1 UNL1 0.000
    32 H      -6.289515    -4.091520     0.900485 H          1 UNL1 0.000
    33 H      -5.250575    -1.885741     0.720736 H          1 UNL1 0.000
    34 H      -8.801540     5.618947    -0.309491 H          1 UNL1 0.000
    35 H      -9.680518     6.843872     0.616746 H          1 UNL1 0.000
    36 H     -10.408086     5.245229     0.421943 H          1 UNL1 0.000
    37 H      -9.491206    -6.090870     3.158165 H          1 UNL1 0.000
    38 H     -10.325882    -4.548431     2.930461 H          1 UNL1 0.000
    39 H      -8.984636    -4.704412     4.130675 H          1 UNL1 0.000
    40 H      -4.408350    -0.184417     3.780469 H          1 UNL1 0.000
    41 H      -1.951832    -0.104067     3.684357 H          1 UNL1 0.000
    42 H      -2.175946     1.253903    -0.411810 H          1 UNL1 0.000
    43 H      -4.624138     1.186291    -0.293373 H          1 UNL1 0.000
    44 H       0.073140     0.726069     2.591971 H          1 UNL1 0.000
    45 H      -0.039925     0.341788    -0.471453 H          1 UNL1 0.000
    46 C       1.827685     0.550356     0.603897 C          1 UNL1 0.000
    47 C       2.571359    -0.631967     0.525586 C          1 UNL1 0.000
    48 C       3.966305    -0.589978     0.584266 C          1 UNL1 0.000
    49 C       4.616835     0.637498     0.706253 C          1 UNL1 0.000
    50 C       3.881560     1.815120     0.823714 C          1 UNL1 0.000
    51 C       2.487362     1.773992     0.763578 C          1 UNL1 0.000
    52 O       5.979270     0.741414     0.777980 O          1 UNL1 0.000
    53 C       6.611905     0.203297    -0.382618 C          1 UNL1 0.000
    54 H       2.068592    -1.591371     0.428605 H          1 UNL1 0.000
    55 H       4.529696    -1.517035     0.550418 H          1 UNL1 0.000
    56 H       4.394001     2.764830     0.947923 H          1 UNL1 0.000
    57 H       1.921906     2.699798     0.837180 H          1 UNL1 0.000
    58 H       7.660734     0.514389    -0.365519 H          1 UNL1 0.000
    59 H       6.159802     0.594208    -1.301632 H          1 UNL1 0.000
    60 H       6.586873    -0.890856    -0.376449 H          1 UNL1 0.000
@<TRIPOS>BOND
     1      1      2   2
     2      2      3   1
     3      3      4   2
     4      4      5   1
     5      5      6   2
     6      6      1   1
     7      4      7   1
     8      7      8   1
     9      8      9   2
    10      9     10   1
    11     10     11   2
    12     11     12   1
    13     12     13   2
    14     13      8   1
    15     14     15   1
    16      1     14   1
    17     16     17   1
    18     11     16   1
    19     18     19   2
    20     19     20   1
    21     20     21   2
    22     21     22   1
    23     22     23   2
    24     23     18   1
    25     21     24   1
    26     24     25   2
    27      7     18   1
    28      2     26   1
    29      3     27   1
    30      5     28   1
    31      6     29   1
    32      9     30   1
    33     10     31   1
    34     12     32   1
    35     13     33   1
    36     15     34   1
    37     15     35   1
    38     15     36   1
    39     17     37   1
    40     17     38   1
    41     17     39   1
    42     19     40   1
    43     20     41   1
    44     22     42   1
    45     23     43   1
    46     24     44   1
    47     25     45   1
    48     46     47   2
    49     47     48   1
    50     48     49   2
    51     49     50   1
    52     50     51   2
    53     51     46   1
    54     52     53   1
    55     49     52   1
    56     47     54   1
    57     48     55   1
    58     50     56   1
    59     51     57   1
    60     53     58   1
    61     53     59   1
    62     53     60   1
    63     25     46   1
