# Produced with molli package
@<TRIPOS>MOLECULE
B_7_N
53 56 0 0 0
SMALL
USER_CHARGES

@<TRIPOS>ATOM
     1 C      -8.263348     4.164416     2.073326 C          1 UNL1 0.000
     2 C      -8.788854     3.024782     2.672763 C          1 UNL1 0.000
     3 C      -8.100724     1.808983     2.587521 C          1 UNL1 0.000
     4 C      -6.873931     1.713627     1.906638 C          1 UNL1 0.000
     5 C      -6.342828     2.896961     1.353974 C          1 UNL1 0.000
     6 C      -7.026530     4.113267     1.440223 C          1 UNL1 0.000
     7 N      -6.160964     0.461269     1.795552 N          1 UNL1 0.000
     8 C      -6.828301    -0.816991     1.724424 C          1 UNL1 0.000
     9 C      -8.070814    -0.967570     1.081286 C          1 UNL1 0.000
    10 C      -8.714803    -2.208671     1.033121 C          1 UNL1 0.000
    11 C      -8.123890    -3.315119     1.632593 C          1 UNL1 0.000
    12 C      -6.874578    -3.209301     2.233114 C          1 UNL1 0.000
    13 C      -6.235303    -1.967782     2.281670 C          1 UNL1 0.000
    14 O      -8.963035     5.332971     2.196912 O          1 UNL1 0.000
    15 C      -9.375854     5.827081     0.922424 C          1 UNL1 0.000
    16 O      -8.750165    -4.528174     1.555977 O          1 UNL1 0.000
    17 C      -9.417809    -4.815145     2.785525 C          1 UNL1 0.000
    18 C      -4.725989     0.491815     1.729311 C          1 UNL1 0.000
    19 C      -3.973718     0.920677     2.829715 C          1 UNL1 0.000
    20 C      -2.580088     0.985102     2.750358 C          1 UNL1 0.000
    21 C      -1.910065     0.639692     1.567484 C          1 UNL1 0.000
    22 C      -2.667093     0.217126     0.466794 C          1 UNL1 0.000
    23 C      -4.060478     0.125892     0.551807 C          1 UNL1 0.000
    24 C      -0.449344     0.809420     1.519933 C          1 UNL1 0.000
    25 C       0.391249     0.168219     0.688741 C          1 UNL1 0.000
    26 H      -9.734867     3.078315     3.203855 H          1 UNL1 0.000
    27 H      -8.527776     0.938570     3.078910 H          1 UNL1 0.000
    28 H      -5.387518     2.884603     0.834717 H          1 UNL1 0.000
    29 H      -6.578613     5.009037     1.021300 H          1 UNL1 0.000
    30 H      -8.541777    -0.120079     0.589553 H          1 UNL1 0.000
    31 H      -9.670233    -2.308221     0.526699 H          1 UNL1 0.000
    32 H      -6.394904    -4.084053     2.661715 H          1 UNL1 0.000
    33 H      -5.269088    -1.905645     2.776415 H          1 UNL1 0.000
    34 H      -8.522277     6.140450     0.312597 H          1 UNL1 0.000
    35 H     -10.004321     6.706434     1.092384 H          1 UNL1 0.000
    36 H      -9.974849     5.080710     0.388382 H          1 UNL1 0.000
    37 H      -9.830517    -5.825994     2.714849 H          1 UNL1 0.000
    38 H     -10.247915    -4.118423     2.945699 H          1 UNL1 0.000
    39 H      -8.731225    -4.791591     3.639206 H          1 UNL1 0.000
    40 H      -4.474960     1.198682     3.753610 H          1 UNL1 0.000
    41 H      -2.023970     1.314216     3.625655 H          1 UNL1 0.000
    42 H      -2.193029    -0.026075    -0.480278 H          1 UNL1 0.000
    43 H      -4.633060    -0.191260    -0.316527 H          1 UNL1 0.000
    44 H      -0.039963     1.499431     2.255565 H          1 UNL1 0.000
    45 H       0.006010    -0.571241    -0.008526 H          1 UNL1 0.000
    46 C       1.810476     0.347661     0.690005 C          1 UNL1 0.000
    47 C       2.435567     1.577184     0.723252 C          1 UNL1 0.000
    48 S       4.142444     1.433884     0.729638 S          1 UNL1 0.000
    49 C       4.052633    -0.273876     0.679587 C          1 UNL1 0.000
    50 C       2.750501    -0.723770     0.642728 C          1 UNL1 0.000
    51 H       1.982395     2.559286     0.738602 H          1 UNL1 0.000
    52 H       4.957605    -0.865424     0.678950 H          1 UNL1 0.000
    53 H       2.490072    -1.774813     0.611829 H          1 UNL1 0.000
@<TRIPOS>BOND
     1      1      2   2
     2      2      3   1
     3      3      4   2
     4      4      5   1
     5      5      6   2
     6      6      1   1
     7      4      7   1
     8      7      8   1
     9      8      9   2
    10      9     10   1
    11     10     11   2
    12     11     12   1
    13     12     13   2
    14     13      8   1
    15     14     15   1
    16      1     14   1
    17     16     17   1
    18     11     16   1
    19     18     19   2
    20     19     20   1
    21     20     21   2
    22     21     22   1
    23     22     23   2
    24     23     18   1
    25     21     24   1
    26     24     25   2
    27      7     18   1
    28      2     26   1
    29      3     27   1
    30      5     28   1
    31      6     29   1
    32      9     30   1
    33     10     31   1
    34     12     32   1
    35     13     33   1
    36     15     34   1
    37     15     35   1
    38     15     36   1
    39     17     37   1
    40     17     38   1
    41     17     39   1
    42     19     40   1
    43     20     41   1
    44     22     42   1
    45     23     43   1
    46     24     44   1
    47     25     45   1
    48     46     47   2
    49     47     48   1
    50     48     49   1
    51     49     50   2
    52     50     46   1
    53     47     51   1
    54     49     52   1
    55     50     53   1
    56     25     46   1
