# Produced with molli package
@<TRIPOS>MOLECULE
B_7_O
55 58 0 0 0
SMALL
USER_CHARGES

@<TRIPOS>ATOM
     1 C      -8.243749     4.237514     1.603159 C          1 UNL1 0.000
     2 C      -8.767278     3.119866     0.956046 C          1 UNL1 0.000
     3 C      -8.069829     1.904666     0.982411 C          1 UNL1 0.000
     4 C      -6.847354     1.784064     1.665100 C          1 UNL1 0.000
     5 C      -6.344727     2.926600     2.315968 C          1 UNL1 0.000
     6 C      -7.044057     4.135824     2.299211 C          1 UNL1 0.000
     7 N      -6.114307     0.541968     1.691943 N          1 UNL1 0.000
     8 C      -6.758199    -0.744275     1.804460 C          1 UNL1 0.000
     9 C      -7.966761    -0.911148     2.500914 C          1 UNL1 0.000
    10 C      -8.570086    -2.172010     2.626283 C          1 UNL1 0.000
    11 C      -7.970529    -3.296783     2.063532 C          1 UNL1 0.000
    12 C      -6.776035    -3.147750     1.362019 C          1 UNL1 0.000
    13 C      -6.174272    -1.891691     1.238813 C          1 UNL1 0.000
    14 O      -8.874845     5.449586     1.655577 O          1 UNL1 0.000
    15 C      -9.310824     5.911582     0.379885 C          1 UNL1 0.000
    16 O      -8.445087    -4.577362     2.119841 O          1 UNL1 0.000
    17 C      -9.516616    -4.821558     3.021859 C          1 UNL1 0.000
    18 C      -4.678042     0.597546     1.653461 C          1 UNL1 0.000
    19 C      -3.919145     0.168005     2.752115 C          1 UNL1 0.000
    20 C      -2.524985     0.253138     2.724420 C          1 UNL1 0.000
    21 C      -1.870155     0.735861     1.587484 C          1 UNL1 0.000
    22 C      -2.622451     1.153835     0.484523 C          1 UNL1 0.000
    23 C      -4.018003     1.096225     0.521069 C          1 UNL1 0.000
    24 C      -0.409990     0.836352     1.589017 C          1 UNL1 0.000
    25 C       0.363234     0.206189     0.691717 C          1 UNL1 0.000
    26 H      -9.721849     3.167188     0.442157 H          1 UNL1 0.000
    27 H      -8.485503     1.052326     0.450431 H          1 UNL1 0.000
    28 H      -5.408188     2.880699     2.866512 H          1 UNL1 0.000
    29 H      -6.644251     4.999531     2.823396 H          1 UNL1 0.000
    30 H      -8.444942    -0.061005     2.981673 H          1 UNL1 0.000
    31 H      -9.505159    -2.236503     3.172359 H          1 UNL1 0.000
    32 H      -6.300902    -4.016322     0.912820 H          1 UNL1 0.000
    33 H      -5.243208    -1.820817     0.681763 H          1 UNL1 0.000
    34 H      -8.514442     5.831061    -0.368724 H          1 UNL1 0.000
    35 H      -9.569670     6.970094     0.480900 H          1 UNL1 0.000
    36 H     -10.208411     5.378613     0.052430 H          1 UNL1 0.000
    37 H      -9.699841    -5.900346     3.037553 H          1 UNL1 0.000
    38 H     -10.434423    -4.331755     2.681587 H          1 UNL1 0.000
    39 H      -9.257417    -4.513808     4.040539 H          1 UNL1 0.000
    40 H      -4.418113    -0.206039     3.643058 H          1 UNL1 0.000
    41 H      -1.955585    -0.061886     3.596253 H          1 UNL1 0.000
    42 H      -2.130293     1.543262    -0.403855 H          1 UNL1 0.000
    43 H      -4.593731     1.427794    -0.339747 H          1 UNL1 0.000
    44 H       0.026358     1.443503     2.380940 H          1 UNL1 0.000
    45 H      -0.087989    -0.421695    -0.073120 H          1 UNL1 0.000
    46 C       1.830277     0.295446     0.677142 C          1 UNL1 0.000
    47 N       2.407364     1.203502     1.498995 N          1 UNL1 0.000
    48 C       3.755035     1.296688     1.474777 C          1 UNL1 0.000
    49 C       4.567229     0.518832     0.668538 C          1 UNL1 0.000
    50 C       3.960614    -0.410787    -0.166404 C          1 UNL1 0.000
    51 C       2.571586    -0.524563    -0.167332 C          1 UNL1 0.000
    52 H       4.177651     2.040885     2.144461 H          1 UNL1 0.000
    53 H       5.644151     0.635113     0.691361 H          1 UNL1 0.000
    54 H       4.562689    -1.043200    -0.813203 H          1 UNL1 0.000
    55 H       2.087853    -1.247700    -0.815382 H          1 UNL1 0.000
@<TRIPOS>BOND
     1      1      2   2
     2      2      3   1
     3      3      4   2
     4      4      5   1
     5      5      6   2
     6      6      1   1
     7      4      7   1
     8      7      8   1
     9      8      9   2
    10      9     10   1
    11     10     11   2
    12     11     12   1
    13     12     13   2
    14     13      8   1
    15     14     15   1
    16      1     14   1
    17     16     17   1
    18     11     16   1
    19     18     19   2
    20     19     20   1
    21     20     21   2
    22     21     22   1
    23     22     23   2
    24     23     18   1
    25     21     24   1
    26     24     25   2
    27      7     18   1
    28      2     26   1
    29      3     27   1
    30      5     28   1
    31      6     29   1
    32      9     30   1
    33     10     31   1
    34     12     32   1
    35     13     33   1
    36     15     34   1
    37     15     35   1
    38     15     36   1
    39     17     37   1
    40     17     38   1
    41     17     39   1
    42     19     40   1
    43     20     41   1
    44     22     42   1
    45     23     43   1
    46     24     44   1
    47     25     45   1
    48     46     47   2
    49     47     48   1
    50     48     49   2
    51     49     50   1
    52     50     51   2
    53     51     46   1
    54     48     52   1
    55     49     53   1
    56     50     54   1
    57     51     55   1
    58     25     46   1
