# Produced with molli package
@<TRIPOS>MOLECULE
B_7_R
57 60 0 0 0
SMALL
USER_CHARGES

@<TRIPOS>ATOM
     1 C      -8.215162     4.226820     1.691004 C          1 UNL1 0.000
     2 C      -8.814844     3.086637     1.162461 C          1 UNL1 0.000
     3 C      -8.125713     1.865662     1.168840 C          1 UNL1 0.000
     4 C      -6.840153     1.755808     1.727607 C          1 UNL1 0.000
     5 C      -6.260276     2.928918     2.252459 C          1 UNL1 0.000
     6 C      -6.944879     4.147551     2.247456 C          1 UNL1 0.000
     7 N      -6.121110     0.502511     1.753193 N          1 UNL1 0.000
     8 C      -6.760664    -0.787001     1.878320 C          1 UNL1 0.000
     9 C      -7.963432    -0.962568     2.582178 C          1 UNL1 0.000
    10 C      -8.556638    -2.228759     2.714825 C          1 UNL1 0.000
    11 C      -7.947532    -3.352491     2.160435 C          1 UNL1 0.000
    12 C      -6.755540    -3.197788     1.457776 C          1 UNL1 0.000
    13 C      -6.167468    -1.936556     1.323435 C          1 UNL1 0.000
    14 O      -8.851279     5.434849     1.765265 O          1 UNL1 0.000
    15 C      -9.258468     5.912941     0.485307 C          1 UNL1 0.000
    16 O      -8.409644    -4.636939     2.225864 O          1 UNL1 0.000
    17 C      -9.450320    -4.892794     3.159955 C          1 UNL1 0.000
    18 C      -4.684551     0.540488     1.706767 C          1 UNL1 0.000
    19 C      -3.930694     0.239303     2.849736 C          1 UNL1 0.000
    20 C      -2.535760     0.292925     2.808105 C          1 UNL1 0.000
    21 C      -1.872799     0.610872     1.616630 C          1 UNL1 0.000
    22 C      -2.626391     0.910058     0.474156 C          1 UNL1 0.000
    23 C      -4.022677     0.883779     0.520168 C          1 UNL1 0.000
    24 C      -0.407728     0.680026     1.618122 C          1 UNL1 0.000
    25 C       0.361900     0.146428     0.655177 C          1 UNL1 0.000
    26 H      -9.822464     3.125009     0.760738 H          1 UNL1 0.000
    27 H      -8.607172     0.999515     0.721979 H          1 UNL1 0.000
    28 H      -5.269171     2.906293     2.698780 H          1 UNL1 0.000
    29 H      -6.481630     5.031399     2.677056 H          1 UNL1 0.000
    30 H      -8.447248    -0.116553     3.064155 H          1 UNL1 0.000
    31 H      -9.491947    -2.298913     3.260033 H          1 UNL1 0.000
    32 H      -6.270412    -4.065516     1.017740 H          1 UNL1 0.000
    33 H      -5.236089    -1.866422     0.767250 H          1 UNL1 0.000
    34 H      -8.421638     5.914084    -0.222151 H          1 UNL1 0.000
    35 H      -9.595776     6.946733     0.609031 H          1 UNL1 0.000
    36 H     -10.098352     5.333242     0.090812 H          1 UNL1 0.000
    37 H      -9.607291    -5.975331     3.195187 H          1 UNL1 0.000
    38 H     -10.387710    -4.429083     2.837373 H          1 UNL1 0.000
    39 H      -9.171896    -4.564878     4.167202 H          1 UNL1 0.000
    40 H      -4.434243    -0.012313     3.779800 H          1 UNL1 0.000
    41 H      -1.971573     0.078180     3.712986 H          1 UNL1 0.000
    42 H      -2.136589     1.181443    -0.457518 H          1 UNL1 0.000
    43 H      -4.598238     1.116288    -0.372118 H          1 UNL1 0.000
    44 H       0.040388     1.178929     2.475389 H          1 UNL1 0.000
    45 H      -0.092198    -0.378844    -0.179655 H          1 UNL1 0.000
    46 C       1.829806     0.209881     0.660436 C          1 UNL1 0.000
    47 N       2.422201     0.941879     1.637099 N          1 UNL1 0.000
    48 C       3.776644     1.012786     1.642984 C          1 UNL1 0.000
    49 C       4.569136     0.375099     0.704568 C          1 UNL1 0.000
    50 C       3.956409    -0.378102    -0.297595 C          1 UNL1 0.000
    51 C       2.562758    -0.459452    -0.318054 C          1 UNL1 0.000
    52 N       6.016848     0.498178     0.771891 N          1 UNL1 0.000
    53 O       6.676030     0.044577    -0.171889 O          1 UNL1 0.000
    54 O       6.502296     1.049617     1.770959 O          1 UNL1 0.000
    55 H       4.190867     1.617081     2.446462 H          1 UNL1 0.000
    56 H       4.537416    -0.899001    -1.054652 H          1 UNL1 0.000
    57 H       2.066338    -1.041892    -1.088593 H          1 UNL1 0.000
@<TRIPOS>BOND
     1      1      2   2
     2      2      3   1
     3      3      4   2
     4      4      5   1
     5      5      6   2
     6      6      1   1
     7      4      7   1
     8      7      8   1
     9      8      9   2
    10      9     10   1
    11     10     11   2
    12     11     12   1
    13     12     13   2
    14     13      8   1
    15     14     15   1
    16      1     14   1
    17     16     17   1
    18     11     16   1
    19     18     19   2
    20     19     20   1
    21     20     21   2
    22     21     22   1
    23     22     23   2
    24     23     18   1
    25     21     24   1
    26     24     25   2
    27      7     18   1
    28      2     26   1
    29      3     27   1
    30      5     28   1
    31      6     29   1
    32      9     30   1
    33     10     31   1
    34     12     32   1
    35     13     33   1
    36     15     34   1
    37     15     35   1
    38     15     36   1
    39     17     37   1
    40     17     38   1
    41     17     39   1
    42     19     40   1
    43     20     41   1
    44     22     42   1
    45     23     43   1
    46     24     44   1
    47     25     45   1
    48     46     47   2
    49     47     48   1
    50     48     49   2
    51     49     50   1
    52     50     51   2
    53     51     46   1
    54     52     53   2
    55     52     54   1
    56     49     52   1
    57     48     55   1
    58     50     56   1
    59     51     57   1
    60     25     46   1
