# Produced with molli package
@<TRIPOS>MOLECULE
B_7_Q
54 57 0 0 0
SMALL
USER_CHARGES

@<TRIPOS>ATOM
     1 C      -8.207579     4.284921     1.625244 C          1 UNL1 0.000
     2 C      -8.739500     3.165973     0.985954 C          1 UNL1 0.000
     3 C      -8.064183     1.937061     1.035035 C          1 UNL1 0.000
     4 C      -6.849692     1.802466     1.727006 C          1 UNL1 0.000
     5 C      -6.335224     2.942192     2.370518 C          1 UNL1 0.000
     6 C      -7.013054     4.163142     2.330731 C          1 UNL1 0.000
     7 N      -6.129268     0.553756     1.759978 N          1 UNL1 0.000
     8 C      -6.782221    -0.725902     1.888259 C          1 UNL1 0.000
     9 C      -7.994913    -0.873930     2.581700 C          1 UNL1 0.000
    10 C      -8.608308    -2.128410     2.723330 C          1 UNL1 0.000
    11 C      -8.015802    -3.265857     2.179065 C          1 UNL1 0.000
    12 C      -6.815959    -3.136031     1.482791 C          1 UNL1 0.000
    13 C      -6.204422    -1.886268     1.343140 C          1 UNL1 0.000
    14 O      -8.768692     5.531174     1.652710 O          1 UNL1 0.000
    15 C      -9.659067     5.836051     0.586350 C          1 UNL1 0.000
    16 O      -8.498939    -4.542327     2.251466 O          1 UNL1 0.000
    17 C      -9.619505    -4.756390     3.099671 C          1 UNL1 0.000
    18 C      -4.693448     0.600661     1.701470 C          1 UNL1 0.000
    19 C      -3.922600     0.202704     2.803425 C          1 UNL1 0.000
    20 C      -2.529488     0.296667     2.761138 C          1 UNL1 0.000
    21 C      -1.887524     0.755437     1.606030 C          1 UNL1 0.000
    22 C      -2.652839     1.136543     0.497782 C          1 UNL1 0.000
    23 C      -4.047061     1.070687     0.548953 C          1 UNL1 0.000
    24 C      -0.429098     0.878246     1.595565 C          1 UNL1 0.000
    25 C       0.346630     0.236861     0.706796 C          1 UNL1 0.000
    26 H      -9.679433     3.214036     0.446478 H          1 UNL1 0.000
    27 H      -8.487197     1.087360     0.504354 H          1 UNL1 0.000
    28 H      -5.402926     2.888452     2.927322 H          1 UNL1 0.000
    29 H      -6.596401     5.026145     2.843885 H          1 UNL1 0.000
    30 H      -8.468657    -0.013605     3.048501 H          1 UNL1 0.000
    31 H      -9.544555    -2.177671     3.268968 H          1 UNL1 0.000
    32 H      -6.345082    -4.014772     1.049013 H          1 UNL1 0.000
    33 H      -5.270624    -1.831630     0.788962 H          1 UNL1 0.000
    34 H      -9.204843     5.620835    -0.387034 H          1 UNL1 0.000
    35 H      -9.869032     6.909439     0.625344 H          1 UNL1 0.000
    36 H     -10.608756     5.305722     0.705040 H          1 UNL1 0.000
    37 H      -9.823856    -5.831371     3.117309 H          1 UNL1 0.000
    38 H     -10.509423    -4.253651     2.707863 H          1 UNL1 0.000
    39 H      -9.406389    -4.441901     4.126854 H          1 UNL1 0.000
    40 H      -4.411760    -0.148263     3.708621 H          1 UNL1 0.000
    41 H      -1.950740     0.011313     3.636572 H          1 UNL1 0.000
    42 H      -2.172462     1.507530    -0.404355 H          1 UNL1 0.000
    43 H      -4.633137     1.378056    -0.313524 H          1 UNL1 0.000
    44 H      -0.000035     1.516745     2.364779 H          1 UNL1 0.000
    45 H      -0.099443    -0.418344    -0.035775 H          1 UNL1 0.000
    46 C       1.809506     0.358900     0.673630 C          1 UNL1 0.000
    47 N       2.390862     1.271778     1.491603 N          1 UNL1 0.000
    48 C       3.738283     1.365865     1.412189 C          1 UNL1 0.000
    49 C       4.490314     0.581265     0.555408 C          1 UNL1 0.000
    50 N       3.929760    -0.335096    -0.263554 N          1 UNL1 0.000
    51 C       2.577727    -0.425028    -0.184365 C          1 UNL1 0.000
    52 H       4.201058     2.099421     2.062311 H          1 UNL1 0.000
    53 H       5.569311     0.670669     0.504653 H          1 UNL1 0.000
    54 H       2.127281    -1.160121    -0.842497 H          1 UNL1 0.000
@<TRIPOS>BOND
     1      1      2   2
     2      2      3   1
     3      3      4   2
     4      4      5   1
     5      5      6   2
     6      6      1   1
     7      4      7   1
     8      7      8   1
     9      8      9   2
    10      9     10   1
    11     10     11   2
    12     11     12   1
    13     12     13   2
    14     13      8   1
    15     14     15   1
    16      1     14   1
    17     16     17   1
    18     11     16   1
    19     18     19   2
    20     19     20   1
    21     20     21   2
    22     21     22   1
    23     22     23   2
    24     23     18   1
    25     21     24   1
    26     24     25   2
    27      7     18   1
    28      2     26   1
    29      3     27   1
    30      5     28   1
    31      6     29   1
    32      9     30   1
    33     10     31   1
    34     12     32   1
    35     13     33   1
    36     15     34   1
    37     15     35   1
    38     15     36   1
    39     17     37   1
    40     17     38   1
    41     17     39   1
    42     19     40   1
    43     20     41   1
    44     22     42   1
    45     23     43   1
    46     24     44   1
    47     25     45   1
    48     46     47   2
    49     47     48   1
    50     48     49   2
    51     49     50   1
    52     50     51   2
    53     51     46   1
    54     48     52   1
    55     49     53   1
    56     51     54   1
    57     25     46   1
