# Produced with molli package
@<TRIPOS>MOLECULE
B_8_T
56 60 0 0 0
SMALL
USER_CHARGES

@<TRIPOS>ATOM
     1 C      -6.047077     4.277938     0.270680 C          1 UNL1 0.000
     2 C      -6.643594     3.129914    -0.244146 C          1 UNL1 0.000
     3 C      -5.970864     1.901574    -0.178793 C          1 UNL1 0.000
     4 C      -4.704688     1.793351     0.422203 C          1 UNL1 0.000
     5 C      -4.128561     2.972902     0.935709 C          1 UNL1 0.000
     6 C      -4.798204     4.198408     0.874247 C          1 UNL1 0.000
     7 N      -4.000985     0.535877     0.498773 N          1 UNL1 0.000
     8 C      -4.652792    -0.745695     0.628426 C          1 UNL1 0.000
     9 C      -5.864510    -0.899106     1.322124 C          1 UNL1 0.000
    10 C      -6.464724    -2.159403     1.478299 C          1 UNL1 0.000
    11 C      -5.854663    -3.298555     0.957421 C          1 UNL1 0.000
    12 C      -4.658145    -3.165004     0.258994 C          1 UNL1 0.000
    13 C      -4.063576    -1.909935     0.100355 C          1 UNL1 0.000
    14 O      -6.660000     5.500248     0.280262 O          1 UNL1 0.000
    15 C      -7.060554     5.920197    -1.022179 C          1 UNL1 0.000
    16 O      -6.321029    -4.579551     1.050641 O          1 UNL1 0.000
    17 C      -7.358251    -4.812069     1.994360 C          1 UNL1 0.000
    18 C      -2.568023     0.557489     0.427348 C          1 UNL1 0.000
    19 C      -1.799337     0.341630     1.598584 C          1 UNL1 0.000
    20 C      -0.387227     0.333243     1.618733 C          1 UNL1 0.000
    21 C       0.406773     0.521830     0.466704 C          1 UNL1 0.000
    22 C      -0.303801     0.730288    -0.752875 C          1 UNL1 0.000
    23 C      -1.817095     0.754408    -0.771033 C          1 UNL1 0.000
    24 N       0.229432     0.907016    -1.975128 N          1 UNL1 0.000
    25 S      -1.032280     1.069615    -3.034900 S          1 UNL1 0.000
    26 N      -2.320908     0.939761    -2.004954 N          1 UNL1 0.000
    27 H      -7.634224     3.167604    -0.685907 H          1 UNL1 0.000
    28 H      -6.444600     1.029167    -0.622039 H          1 UNL1 0.000
    29 H      -3.154073     2.953779     1.415288 H          1 UNL1 0.000
    30 H      -4.338737     5.089887     1.291996 H          1 UNL1 0.000
    31 H      -6.350705    -0.039148     1.776413 H          1 UNL1 0.000
    32 H      -7.406883    -2.213063     2.013491 H          1 UNL1 0.000
    33 H      -4.175814    -4.044118    -0.161332 H          1 UNL1 0.000
    34 H      -3.134488    -1.860256    -0.460898 H          1 UNL1 0.000
    35 H      -6.237637     5.831777    -1.740502 H          1 UNL1 0.000
    36 H      -7.339011     6.976774    -0.959204 H          1 UNL1 0.000
    37 H      -7.937605     5.364027    -1.366353 H          1 UNL1 0.000
    38 H      -7.516240    -5.893302     2.055342 H          1 UNL1 0.000
    39 H      -8.296225    -4.354712     1.664772 H          1 UNL1 0.000
    40 H      -7.075226    -4.461095     2.992532 H          1 UNL1 0.000
    41 H      -2.328590     0.185731     2.540066 H          1 UNL1 0.000
    42 H       0.110211     0.173576     2.577141 H          1 UNL1 0.000
    43 C       1.864225     0.484353     0.506744 C          1 UNL1 0.000
    44 C       2.618367     1.663157     0.429029 C          1 UNL1 0.000
    45 C       4.014681     1.624451     0.482306 C          1 UNL1 0.000
    46 C       4.685062     0.404875     0.620132 C          1 UNL1 0.000
    47 C       3.938741    -0.776230     0.686999 C          1 UNL1 0.000
    48 C       2.542889    -0.735579     0.637858 C          1 UNL1 0.000
    49 C       6.183423     0.349393     0.642060 C          1 UNL1 0.000
    50 H       2.120300     2.624426     0.320250 H          1 UNL1 0.000
    51 H       4.572605     2.555254     0.411263 H          1 UNL1 0.000
    52 H       4.439686    -1.737830     0.772804 H          1 UNL1 0.000
    53 H       1.985680    -1.668766     0.688057 H          1 UNL1 0.000
    54 H       6.559248     0.003088    -0.325723 H          1 UNL1 0.000
    55 H       6.529408    -0.332024     1.426255 H          1 UNL1 0.000
    56 H       6.615277     1.333919     0.849672 H          1 UNL1 0.000
@<TRIPOS>BOND
     1      1      2   2
     2      2      3   1
     3      3      4   2
     4      4      5   1
     5      5      6   2
     6      6      1   1
     7      4      7   1
     8      7      8   1
     9      8      9   2
    10      9     10   1
    11     10     11   2
    12     11     12   1
    13     12     13   2
    14     13      8   1
    15     14     15   1
    16      1     14   1
    17     16     17   1
    18     11     16   1
    19     18     19   2
    20     19     20   1
    21     20     21   2
    22     21     22   1
    23     22     23   1
    24     23     18   1
    25     22     24   2
    26     24     25   1
    27     25     26   1
    28     26     23   2
    29      7     18   1
    30      2     27   1
    31      3     28   1
    32      5     29   1
    33      6     30   1
    34      9     31   1
    35     10     32   1
    36     12     33   1
    37     13     34   1
    38     15     35   1
    39     15     36   1
    40     15     37   1
    41     17     38   1
    42     17     39   1
    43     17     40   1
    44     19     41   1
    45     20     42   1
    46     43     44   2
    47     44     45   1
    48     45     46   2
    49     46     47   1
    50     47     48   2
    51     48     43   1
    52     46     49   1
    53     44     50   1
    54     45     51   1
    55     47     52   1
    56     48     53   1
    57     49     54   1
    58     49     55   1
    59     49     56   1
    60     21     43   1
