# Produced with molli package
@<TRIPOS>MOLECULE
B_8_M
54 58 0 0 0
SMALL
USER_CHARGES

@<TRIPOS>ATOM
     1 C      -5.878262     4.419214     0.325206 C          1 UNL1 0.000
     2 C      -6.635803     3.284053     0.059882 C          1 UNL1 0.000
     3 C      -6.044270     2.008857     0.102297 C          1 UNL1 0.000
     4 C      -4.708090     1.825033     0.490953 C          1 UNL1 0.000
     5 C      -3.968427     3.009156     0.737512 C          1 UNL1 0.000
     6 C      -4.540565     4.284489     0.657676 C          1 UNL1 0.000
     7 N      -4.068283     0.522846     0.612118 N          1 UNL1 0.000
     8 C      -4.733637    -0.769243     0.690367 C          1 UNL1 0.000
     9 C      -6.062907    -0.941938     1.113648 C          1 UNL1 0.000
    10 C      -6.694334    -2.200039     1.081608 C          1 UNL1 0.000
    11 C      -5.978542    -3.330640     0.703667 C          1 UNL1 0.000
    12 C      -4.644677    -3.211659     0.353703 C          1 UNL1 0.000
    13 C      -4.034137    -1.954052     0.355063 C          1 UNL1 0.000
    14 O      -6.414236     5.675252     0.364938 O          1 UNL1 0.000
    15 C      -6.965761     6.074133    -0.887791 C          1 UNL1 0.000
    16 O      -6.540804    -4.566751     0.576314 O          1 UNL1 0.000
    17 C      -7.114598    -5.057722     1.783879 C          1 UNL1 0.000
    18 C      -2.631333     0.509244     0.513358 C          1 UNL1 0.000
    19 C      -1.839862     0.473793     1.689981 C          1 UNL1 0.000
    20 C      -0.426387     0.490621     1.682364 C          1 UNL1 0.000
    21 C       0.340577     0.524380     0.497501 C          1 UNL1 0.000
    22 C      -0.394819     0.534526    -0.724743 C          1 UNL1 0.000
    23 C      -1.904962     0.534370    -0.717383 C          1 UNL1 0.000
    24 N       0.116951     0.542596    -1.969024 N          1 UNL1 0.000
    25 S      -1.165526     0.540212    -3.017876 S          1 UNL1 0.000
    26 N      -2.432764     0.541726    -1.954206 N          1 UNL1 0.000
    27 H      -7.693783     3.369146    -0.169040 H          1 UNL1 0.000
    28 H      -6.665588     1.173360    -0.199709 H          1 UNL1 0.000
    29 H      -2.917656     2.971609     1.009329 H          1 UNL1 0.000
    30 H      -3.936417     5.164361     0.860701 H          1 UNL1 0.000
    31 H      -6.647563    -0.106706     1.484906 H          1 UNL1 0.000
    32 H      -7.747313    -2.277752     1.336686 H          1 UNL1 0.000
    33 H      -4.075622    -4.091149     0.065840 H          1 UNL1 0.000
    34 H      -2.990798    -1.931427     0.056119 H          1 UNL1 0.000
    35 H      -6.178222     6.159265    -1.644095 H          1 UNL1 0.000
    36 H      -7.414261     7.063335    -0.752440 H          1 UNL1 0.000
    37 H      -7.754938     5.398035    -1.229816 H          1 UNL1 0.000
    38 H      -6.681085    -6.043379     1.981764 H          1 UNL1 0.000
    39 H      -8.191646    -5.179964     1.638830 H          1 UNL1 0.000
    40 H      -6.929426    -4.424016     2.658094 H          1 UNL1 0.000
    41 H      -2.352350     0.454186     2.653451 H          1 UNL1 0.000
    42 H       0.090770     0.483236     2.643421 H          1 UNL1 0.000
    43 C       1.797998     0.555240     0.497504 C          1 UNL1 0.000
    44 C       2.485162     1.778333     0.465958 C          1 UNL1 0.000
    45 C       3.882498     1.812847     0.441982 C          1 UNL1 0.000
    46 C       4.612714     0.621272     0.450563 C          1 UNL1 0.000
    47 C       3.938930    -0.602894     0.490359 C          1 UNL1 0.000
    48 C       2.541143    -0.634155     0.515131 C          1 UNL1 0.000
    49 C       6.044692     0.654647     0.413006 C          1 UNL1 0.000
    50 N       7.205615     0.682256     0.384800 N          1 UNL1 0.000
    51 H       1.931634     2.715717     0.444423 H          1 UNL1 0.000
    52 H       4.391765     2.774127     0.406923 H          1 UNL1 0.000
    53 H       4.493413    -1.539466     0.492615 H          1 UNL1 0.000
    54 H       2.032351    -1.596505     0.531428 H          1 UNL1 0.000
@<TRIPOS>BOND
     1      1      2   2
     2      2      3   1
     3      3      4   2
     4      4      5   1
     5      5      6   2
     6      6      1   1
     7      4      7   1
     8      7      8   1
     9      8      9   2
    10      9     10   1
    11     10     11   2
    12     11     12   1
    13     12     13   2
    14     13      8   1
    15     14     15   1
    16      1     14   1
    17     16     17   1
    18     11     16   1
    19     18     19   2
    20     19     20   1
    21     20     21   2
    22     21     22   1
    23     22     23   1
    24     23     18   1
    25     22     24   2
    26     24     25   1
    27     25     26   1
    28     26     23   2
    29      7     18   1
    30      2     27   1
    31      3     28   1
    32      5     29   1
    33      6     30   1
    34      9     31   1
    35     10     32   1
    36     12     33   1
    37     13     34   1
    38     15     35   1
    39     15     36   1
    40     15     37   1
    41     17     38   1
    42     17     39   1
    43     17     40   1
    44     19     41   1
    45     20     42   1
    46     43     44   2
    47     44     45   1
    48     45     46   2
    49     46     47   1
    50     47     48   2
    51     48     43   1
    52     49     50   3
    53     46     49   1
    54     44     51   1
    55     45     52   1
    56     47     53   1
    57     48     54   1
    58     21     43   1
