# Produced with molli package
@<TRIPOS>MOLECULE
B_8_S
58 62 0 0 0
SMALL
USER_CHARGES

@<TRIPOS>ATOM
     1 C      -6.069994     4.315428     0.658793 C          1 UNL1 0.000
     2 C      -6.648601     3.204308     1.260947 C          1 UNL1 0.000
     3 C      -5.984025     1.968738     1.246438 C          1 UNL1 0.000
     4 C      -4.740817     1.811892     0.609753 C          1 UNL1 0.000
     5 C      -4.156249     2.978803     0.066853 C          1 UNL1 0.000
     6 C      -4.804366     4.217700     0.098597 C          1 UNL1 0.000
     7 N      -4.047622     0.540506     0.548245 N          1 UNL1 0.000
     8 C      -4.685816    -0.763851     0.526431 C          1 UNL1 0.000
     9 C      -6.030682    -0.953894     0.160002 C          1 UNL1 0.000
    10 C      -6.624364    -2.226156     0.170658 C          1 UNL1 0.000
    11 C      -5.869858    -3.339639     0.517350 C          1 UNL1 0.000
    12 C      -4.523086    -3.203996     0.815458 C          1 UNL1 0.000
    13 C      -3.945499    -1.930704     0.832524 C          1 UNL1 0.000
    14 O      -6.743841     5.504041     0.708330 O          1 UNL1 0.000
    15 C      -7.088057     5.956601    -0.602525 C          1 UNL1 0.000
    16 O      -6.420822    -4.589270     0.476773 O          1 UNL1 0.000
    17 C      -6.990142    -4.919377     1.743885 C          1 UNL1 0.000
    18 C      -2.614513     0.575855     0.434010 C          1 UNL1 0.000
    19 C      -1.817596     0.697992     1.600382 C          1 UNL1 0.000
    20 C      -0.404522     0.704931     1.586296 C          1 UNL1 0.000
    21 C       0.359376     0.607639     0.402745 C          1 UNL1 0.000
    22 C      -0.381634     0.506396    -0.811820 C          1 UNL1 0.000
    23 C      -1.893141     0.484801    -0.795910 C          1 UNL1 0.000
    24 N       0.123590     0.427929    -2.056292 N          1 UNL1 0.000
    25 S      -1.163602     0.350548    -3.095987 S          1 UNL1 0.000
    26 N      -2.426303     0.396844    -2.027467 N          1 UNL1 0.000
    27 H      -7.619002     3.294671     1.740982 H          1 UNL1 0.000
    28 H      -6.454718     1.136050     1.761045 H          1 UNL1 0.000
    29 H      -3.181530     2.948311    -0.411271 H          1 UNL1 0.000
    30 H      -4.308464     5.092037    -0.312063 H          1 UNL1 0.000
    31 H      -6.641087    -0.121373    -0.176781 H          1 UNL1 0.000
    32 H      -7.666170    -2.342210    -0.113441 H          1 UNL1 0.000
    33 H      -3.918711    -4.079946     1.031471 H          1 UNL1 0.000
    34 H      -2.891529    -1.877451     1.088301 H          1 UNL1 0.000
    35 H      -6.201381     6.186948    -1.202563 H          1 UNL1 0.000
    36 H      -7.666488     6.879423    -0.497467 H          1 UNL1 0.000
    37 H      -7.715552     5.219387    -1.115947 H          1 UNL1 0.000
    38 H      -7.163020    -5.999902     1.762362 H          1 UNL1 0.000
    39 H      -7.954328    -4.416004     1.868074 H          1 UNL1 0.000
    40 H      -6.322493    -4.672668     2.577894 H          1 UNL1 0.000
    41 H      -2.325110     0.769739     2.564016 H          1 UNL1 0.000
    42 H       0.115772     0.783204     2.542558 H          1 UNL1 0.000
    43 C       1.817613     0.621007     0.402380 C          1 UNL1 0.000
    44 C       2.519855     1.826112     0.534774 C          1 UNL1 0.000
    45 C       3.917516     1.840934     0.531996 C          1 UNL1 0.000
    46 C       4.641155     0.648539     0.406028 C          1 UNL1 0.000
    47 C       3.948989    -0.558515     0.266177 C          1 UNL1 0.000
    48 C       2.548678    -0.568905     0.267758 C          1 UNL1 0.000
    49 C       6.131524     0.722662     0.416944 C          1 UNL1 0.000
    50 C       6.938050    -0.542269     0.550752 C          1 UNL1 0.000
    51 O       6.687717     1.815309     0.305254 O          1 UNL1 0.000
    52 H       1.982364     2.768156     0.626366 H          1 UNL1 0.000
    53 H       4.439077     2.792162     0.625086 H          1 UNL1 0.000
    54 H       4.468253    -1.503501     0.138587 H          1 UNL1 0.000
    55 H       2.026679    -1.517587     0.151726 H          1 UNL1 0.000
    56 H       7.127116    -0.964707    -0.438977 H          1 UNL1 0.000
    57 H       6.440068    -1.273983     1.190865 H          1 UNL1 0.000
    58 H       7.892601    -0.301578     1.029673 H          1 UNL1 0.000
@<TRIPOS>BOND
     1      1      2   2
     2      2      3   1
     3      3      4   2
     4      4      5   1
     5      5      6   2
     6      6      1   1
     7      4      7   1
     8      7      8   1
     9      8      9   2
    10      9     10   1
    11     10     11   2
    12     11     12   1
    13     12     13   2
    14     13      8   1
    15     14     15   1
    16      1     14   1
    17     16     17   1
    18     11     16   1
    19     18     19   2
    20     19     20   1
    21     20     21   2
    22     21     22   1
    23     22     23   1
    24     23     18   1
    25     22     24   2
    26     24     25   1
    27     25     26   1
    28     26     23   2
    29      7     18   1
    30      2     27   1
    31      3     28   1
    32      5     29   1
    33      6     30   1
    34      9     31   1
    35     10     32   1
    36     12     33   1
    37     13     34   1
    38     15     35   1
    39     15     36   1
    40     15     37   1
    41     17     38   1
    42     17     39   1
    43     17     40   1
    44     19     41   1
    45     20     42   1
    46     43     44   2
    47     44     45   1
    48     45     46   2
    49     46     47   1
    50     47     48   2
    51     48     43   1
    52     46     49   1
    53     49     50   1
    54     49     51   2
    55     44     52   1
    56     45     53   1
    57     47     54   1
    58     48     55   1
    59     50     56   1
    60     50     57   1
    61     50     58   1
    62     21     43   1
