# Produced with molli package
@<TRIPOS>MOLECULE
B_8_K
55 59 0 0 0
SMALL
USER_CHARGES

@<TRIPOS>ATOM
     1 C      -5.918324     4.224432     0.357268 C          1 UNL1 0.000
     2 C      -6.550554     3.088154    -0.140454 C          1 UNL1 0.000
     3 C      -5.916561     1.835993    -0.067043 C          1 UNL1 0.000
     4 C      -4.656816     1.684203     0.535638 C          1 UNL1 0.000
     5 C      -4.039396     2.856743     1.020929 C          1 UNL1 0.000
     6 C      -4.664362     4.105354     0.942663 C          1 UNL1 0.000
     7 N      -3.982945     0.406604     0.630456 N          1 UNL1 0.000
     8 C      -4.644695    -0.880831     0.678509 C          1 UNL1 0.000
     9 C      -5.942028    -1.048109     1.193571 C          1 UNL1 0.000
    10 C      -6.562291    -2.309597     1.231957 C          1 UNL1 0.000
    11 C      -5.879078    -3.439941     0.791135 C          1 UNL1 0.000
    12 C      -4.592652    -3.304955     0.288016 C          1 UNL1 0.000
    13 C      -3.982876    -2.048517     0.242491 C          1 UNL1 0.000
    14 O      -6.468738     5.475309     0.376737 O          1 UNL1 0.000
    15 C      -7.130014     5.844340    -0.829021 C          1 UNL1 0.000
    16 O      -6.388810    -4.707164     0.768555 O          1 UNL1 0.000
    17 C      -7.190630    -5.042311     1.895358 C          1 UNL1 0.000
    18 C      -2.548452     0.418765     0.561494 C          1 UNL1 0.000
    19 C      -1.778969     0.324008     1.748966 C          1 UNL1 0.000
    20 C      -0.365874     0.338852     1.770171 C          1 UNL1 0.000
    21 C       0.422259     0.425617     0.602922 C          1 UNL1 0.000
    22 C      -0.290049     0.493710    -0.631028 C          1 UNL1 0.000
    23 C      -1.799463     0.499555    -0.652011 C          1 UNL1 0.000
    24 N       0.246090     0.550841    -1.863720 N          1 UNL1 0.000
    25 S      -1.015886     0.595792    -2.936176 S          1 UNL1 0.000
    26 N      -2.303445     0.557898    -1.897600 N          1 UNL1 0.000
    27 H      -7.543216     3.143165    -0.575168 H          1 UNL1 0.000
    28 H      -6.423038     0.983231    -0.511260 H          1 UNL1 0.000
    29 H      -3.059678     2.822039     1.487863 H          1 UNL1 0.000
    30 H      -4.163724     4.986465     1.335413 H          1 UNL1 0.000
    31 H      -6.494794    -0.199926     1.588687 H          1 UNL1 0.000
    32 H      -7.582173    -2.379280     1.596865 H          1 UNL1 0.000
    33 H      -4.053246    -4.179825    -0.065411 H          1 UNL1 0.000
    34 H      -2.976990    -2.008735    -0.164123 H          1 UNL1 0.000
    35 H      -6.470761     5.717733    -1.694622 H          1 UNL1 0.000
    36 H      -7.385297     6.906206    -0.754116 H          1 UNL1 0.000
    37 H      -8.063377     5.289979    -0.961857 H          1 UNL1 0.000
    38 H      -7.258410    -6.133876     1.939396 H          1 UNL1 0.000
    39 H      -8.203526    -4.645562     1.781304 H          1 UNL1 0.000
    40 H      -6.737402    -4.699399     2.832165 H          1 UNL1 0.000
    41 H      -2.309462     0.254534     2.700371 H          1 UNL1 0.000
    42 H       0.132349     0.284344     2.739593 H          1 UNL1 0.000
    43 C       1.879405     0.452431     0.628613 C          1 UNL1 0.000
    44 C       2.618219    -0.743706     0.647149 C          1 UNL1 0.000
    45 C       4.014496    -0.719501     0.642159 C          1 UNL1 0.000
    46 C       4.667229     0.515578     0.610555 C          1 UNL1 0.000
    47 C       3.960331     1.719277     0.598703 C          1 UNL1 0.000
    48 C       2.565431     1.680485     0.614241 C          1 UNL1 0.000
    49 N       6.119339     0.546578     0.584420 N          1 UNL1 0.000
    50 O       6.653898     1.268526    -0.271778 O          1 UNL1 0.000
    51 O       6.715489    -0.144385     1.417379 O          1 UNL1 0.000
    52 H       2.103612    -1.703480     0.646361 H          1 UNL1 0.000
    53 H       4.574309    -1.651576     0.644675 H          1 UNL1 0.000
    54 H       4.476886     2.675914     0.573223 H          1 UNL1 0.000
    55 H       2.008039     2.615983     0.597073 H          1 UNL1 0.000
@<TRIPOS>BOND
     1      1      2   2
     2      2      3   1
     3      3      4   2
     4      4      5   1
     5      5      6   2
     6      6      1   1
     7      4      7   1
     8      7      8   1
     9      8      9   2
    10      9     10   1
    11     10     11   2
    12     11     12   1
    13     12     13   2
    14     13      8   1
    15     14     15   1
    16      1     14   1
    17     16     17   1
    18     11     16   1
    19     18     19   2
    20     19     20   1
    21     20     21   2
    22     21     22   1
    23     22     23   1
    24     23     18   1
    25     22     24   2
    26     24     25   1
    27     25     26   1
    28     26     23   2
    29      7     18   1
    30      2     27   1
    31      3     28   1
    32      5     29   1
    33      6     30   1
    34      9     31   1
    35     10     32   1
    36     12     33   1
    37     13     34   1
    38     15     35   1
    39     15     36   1
    40     15     37   1
    41     17     38   1
    42     17     39   1
    43     17     40   1
    44     19     41   1
    45     20     42   1
    46     43     44   2
    47     44     45   1
    48     45     46   2
    49     46     47   1
    50     47     48   2
    51     48     43   1
    52     49     50   2
    53     49     51   1
    54     46     49   1
    55     44     52   1
    56     45     53   1
    57     47     54   1
    58     48     55   1
    59     21     43   1
