# Produced with molli package
@<TRIPOS>MOLECULE
B_8_L
57 62 0 0 0
SMALL
USER_CHARGES

@<TRIPOS>ATOM
     1 C      -6.084634     4.165617     0.732115 C          1 UNL1 0.000
     2 C      -6.620309     3.028066     1.326396 C          1 UNL1 0.000
     3 C      -5.923276     1.814065     1.276722 C          1 UNL1 0.000
     4 C      -4.681775     1.710564     0.624904 C          1 UNL1 0.000
     5 C      -4.135220     2.896675     0.093125 C          1 UNL1 0.000
     6 C      -4.823747     4.112824     0.150118 C          1 UNL1 0.000
     7 N      -3.969593     0.456572     0.530019 N          1 UNL1 0.000
     8 C      -4.614866    -0.835783     0.431099 C          1 UNL1 0.000
     9 C      -5.909081    -0.990193    -0.099814 C          1 UNL1 0.000
    10 C      -6.527567    -2.245369    -0.162673 C          1 UNL1 0.000
    11 C      -5.850730    -3.370191     0.291210 C          1 UNL1 0.000
    12 C      -4.548636    -3.266556     0.760875 C          1 UNL1 0.000
    13 C      -3.942042    -2.009577     0.836733 C          1 UNL1 0.000
    14 O      -6.816680     5.318530     0.805293 O          1 UNL1 0.000
    15 C      -7.023523     5.904123    -0.480756 C          1 UNL1 0.000
    16 O      -6.446261    -4.595939     0.210206 O          1 UNL1 0.000
    17 C      -7.059482    -4.942990     1.452991 C          1 UNL1 0.000
    18 C      -2.537496     0.496612     0.442610 C          1 UNL1 0.000
    19 C      -1.762157     0.649274     1.619179 C          1 UNL1 0.000
    20 C      -0.349123     0.653625     1.630758 C          1 UNL1 0.000
    21 C       0.436048     0.526235     0.464314 C          1 UNL1 0.000
    22 C      -0.282242     0.400228    -0.761346 C          1 UNL1 0.000
    23 C      -1.794192     0.378937    -0.771623 C          1 UNL1 0.000
    24 N       0.243547     0.295542    -1.995290 N          1 UNL1 0.000
    25 S      -1.024406     0.185593    -3.054077 S          1 UNL1 0.000
    26 N      -2.306196     0.265123    -2.010360 N          1 UNL1 0.000
    27 H      -7.587344     3.079208     1.818989 H          1 UNL1 0.000
    28 H      -6.364974     0.949525     1.765276 H          1 UNL1 0.000
    29 H      -3.167642     2.893210    -0.400928 H          1 UNL1 0.000
    30 H      -4.357979     5.003801    -0.258877 H          1 UNL1 0.000
    31 H      -6.449087    -0.136278    -0.499978 H          1 UNL1 0.000
    32 H      -7.528031    -2.340204    -0.573946 H          1 UNL1 0.000
    33 H      -4.004182    -4.154243     1.068374 H          1 UNL1 0.000
    34 H      -2.930266    -1.966704     1.229384 H          1 UNL1 0.000
    35 H      -6.103330     6.349586    -0.871856 H          1 UNL1 0.000
    36 H      -7.758854     6.706508    -0.368853 H          1 UNL1 0.000
    37 H      -7.428422     5.171962    -1.189063 H          1 UNL1 0.000
    38 H      -6.760055    -5.963852     1.708985 H          1 UNL1 0.000
    39 H      -8.145835    -4.923068     1.323908 H          1 UNL1 0.000
    40 H      -6.787075    -4.284016     2.286873 H          1 UNL1 0.000
    41 H      -2.286013     0.742964     2.571905 H          1 UNL1 0.000
    42 H       0.155734     0.750075     2.593618 H          1 UNL1 0.000
    43 C       1.894395     0.517738     0.494666 C          1 UNL1 0.000
    44 C       2.612759     1.719522     0.558433 C          1 UNL1 0.000
    45 C       4.012465     1.741447     0.585880 C          1 UNL1 0.000
    46 C       4.677976     0.512143     0.552462 C          1 UNL1 0.000
    47 C       4.004375    -0.706645     0.496259 C          1 UNL1 0.000
    48 C       2.596022    -0.702081     0.467260 C          1 UNL1 0.000
    49 N       6.025626     0.229559     0.558286 N          1 UNL1 0.000
    50 C       6.225088    -1.125245     0.515634 C          1 UNL1 0.000
    51 C       4.990484    -1.731247     0.476897 C          1 UNL1 0.000
    52 H       2.078006     2.667924     0.574089 H          1 UNL1 0.000
    53 H       4.552690     2.681358     0.623829 H          1 UNL1 0.000
    54 H       2.058718    -1.645230     0.414651 H          1 UNL1 0.000
    55 H       6.756418     0.926185     0.585700 H          1 UNL1 0.000
    56 H       7.224502    -1.538975     0.512093 H          1 UNL1 0.000
    57 H       4.811447    -2.797581     0.433932 H          1 UNL1 0.000
@<TRIPOS>BOND
     1      1      2   2
     2      2      3   1
     3      3      4   2
     4      4      5   1
     5      5      6   2
     6      6      1   1
     7      4      7   1
     8      7      8   1
     9      8      9   2
    10      9     10   1
    11     10     11   2
    12     11     12   1
    13     12     13   2
    14     13      8   1
    15     14     15   1
    16      1     14   1
    17     16     17   1
    18     11     16   1
    19     18     19   2
    20     19     20   1
    21     20     21   2
    22     21     22   1
    23     22     23   1
    24     23     18   1
    25     22     24   2
    26     24     25   1
    27     25     26   1
    28     26     23   2
    29      7     18   1
    30      2     27   1
    31      3     28   1
    32      5     29   1
    33      6     30   1
    34      9     31   1
    35     10     32   1
    36     12     33   1
    37     13     34   1
    38     15     35   1
    39     15     36   1
    40     15     37   1
    41     17     38   1
    42     17     39   1
    43     17     40   1
    44     19     41   1
    45     20     42   1
    46     43     44   2
    47     44     45   1
    48     45     46   2
    49     46     47   1
    50     47     48   2
    51     48     43   1
    52     46     49   1
    53     49     50   1
    54     50     51   2
    55     51     47   1
    56     44     52   1
    57     45     53   1
    58     48     54   1
    59     49     55   1
    60     50     56   1
    61     51     57   1
    62     21     43   1
