# Produced with molli package
@<TRIPOS>MOLECULE
B_8_R
54 58 0 0 0
SMALL
USER_CHARGES

@<TRIPOS>ATOM
     1 C      -6.036479     4.263193     0.356764 C          1 UNL1 0.000
     2 C      -6.640738     3.115725    -0.149585 C          1 UNL1 0.000
     3 C      -5.964387     1.887943    -0.103496 C          1 UNL1 0.000
     4 C      -4.684267     1.776777     0.467779 C          1 UNL1 0.000
     5 C      -4.099224     2.955533     0.970916 C          1 UNL1 0.000
     6 C      -4.773571     4.179973     0.930791 C          1 UNL1 0.000
     7 N      -3.980021     0.517888     0.517338 N          1 UNL1 0.000
     8 C      -4.634863    -0.765779     0.607668 C          1 UNL1 0.000
     9 C      -5.822474    -0.943065     1.337242 C          1 UNL1 0.000
    10 C      -6.423419    -2.206408     1.461905 C          1 UNL1 0.000
    11 C      -5.837865    -3.324417     0.871712 C          1 UNL1 0.000
    12 C      -4.669803    -3.165766     0.132191 C          1 UNL1 0.000
    13 C      -4.072999    -1.908054     0.007869 C          1 UNL1 0.000
    14 O      -6.637157     5.491065     0.385813 O          1 UNL1 0.000
    15 C      -7.200299     5.872735    -0.866583 C          1 UNL1 0.000
    16 O      -6.308189    -4.606006     0.930138 O          1 UNL1 0.000
    17 C      -7.246266    -4.887654     1.960701 C          1 UNL1 0.000
    18 C      -2.546606     0.534033     0.460470 C          1 UNL1 0.000
    19 C      -1.791023     0.412351     1.653990 C          1 UNL1 0.000
    20 C      -0.378821     0.391461     1.689648 C          1 UNL1 0.000
    21 C       0.424441     0.456757     0.530644 C          1 UNL1 0.000
    22 C      -0.270634     0.562642    -0.707711 C          1 UNL1 0.000
    23 C      -1.781870     0.618027    -0.742805 C          1 UNL1 0.000
    24 N       0.275723     0.592744    -1.937238 N          1 UNL1 0.000
    25 S      -0.972568     0.728059    -3.017591 S          1 UNL1 0.000
    26 N      -2.271372     0.707368    -1.992504 N          1 UNL1 0.000
    27 H      -7.640371     3.148651    -0.570549 H          1 UNL1 0.000
    28 H      -6.448417     1.018186    -0.541004 H          1 UNL1 0.000
    29 H      -3.112364     2.941706     1.424066 H          1 UNL1 0.000
    30 H      -4.304122     5.070528     1.340044 H          1 UNL1 0.000
    31 H      -6.286602    -0.100076     1.843741 H          1 UNL1 0.000
    32 H      -7.347177    -2.280640     2.026116 H          1 UNL1 0.000
    33 H      -4.211032    -4.027556    -0.346227 H          1 UNL1 0.000
    34 H      -3.167309    -1.839065    -0.587319 H          1 UNL1 0.000
    35 H      -6.482304     5.740148    -1.683727 H          1 UNL1 0.000
    36 H      -7.448688     6.937040    -0.807994 H          1 UNL1 0.000
    37 H      -8.126104     5.325988    -1.068439 H          1 UNL1 0.000
    38 H      -7.376456    -5.973448     2.003950 H          1 UNL1 0.000
    39 H      -8.219298    -4.441531     1.733779 H          1 UNL1 0.000
    40 H      -6.878195    -4.558803     2.938603 H          1 UNL1 0.000
    41 H      -2.332008     0.344347     2.599521 H          1 UNL1 0.000
    42 H       0.108547     0.319971     2.663404 H          1 UNL1 0.000
    43 C       1.874898     0.396490     0.567416 C          1 UNL1 0.000
    44 N       2.514013     1.596403     0.577822 N          1 UNL1 0.000
    45 C       3.868097     1.581879     0.585682 C          1 UNL1 0.000
    46 C       4.593521     0.407324     0.618183 C          1 UNL1 0.000
    47 C       3.947352    -0.823408     0.641449 C          1 UNL1 0.000
    48 C       2.554660    -0.824754     0.610930 C          1 UNL1 0.000
    49 N       6.026498     0.475752     0.634989 N          1 UNL1 0.000
    50 O       6.592373     0.654184    -0.450085 O          1 UNL1 0.000
    51 O       6.579167     0.346304     1.733536 O          1 UNL1 0.000
    52 H       4.342709     2.558746     0.566606 H          1 UNL1 0.000
    53 H       4.501945    -1.756590     0.671805 H          1 UNL1 0.000
    54 H       2.006932    -1.762929     0.611578 H          1 UNL1 0.000
@<TRIPOS>BOND
     1      1      2   2
     2      2      3   1
     3      3      4   2
     4      4      5   1
     5      5      6   2
     6      6      1   1
     7      4      7   1
     8      7      8   1
     9      8      9   2
    10      9     10   1
    11     10     11   2
    12     11     12   1
    13     12     13   2
    14     13      8   1
    15     14     15   1
    16      1     14   1
    17     16     17   1
    18     11     16   1
    19     18     19   2
    20     19     20   1
    21     20     21   2
    22     21     22   1
    23     22     23   1
    24     23     18   1
    25     22     24   2
    26     24     25   1
    27     25     26   1
    28     26     23   2
    29      7     18   1
    30      2     27   1
    31      3     28   1
    32      5     29   1
    33      6     30   1
    34      9     31   1
    35     10     32   1
    36     12     33   1
    37     13     34   1
    38     15     35   1
    39     15     36   1
    40     15     37   1
    41     17     38   1
    42     17     39   1
    43     17     40   1
    44     19     41   1
    45     20     42   1
    46     43     44   2
    47     44     45   1
    48     45     46   2
    49     46     47   1
    50     47     48   2
    51     48     43   1
    52     49     50   2
    53     49     51   1
    54     46     49   1
    55     45     52   1
    56     47     53   1
    57     48     54   1
    58     21     43   1
