# Produced with molli package
@<TRIPOS>MOLECULE
B_8_O
52 56 0 0 0
SMALL
USER_CHARGES

@<TRIPOS>ATOM
     1 C      -5.919833     4.231291     0.302913 C          1 UNL1 0.000
     2 C      -6.488927     3.112702    -0.302001 C          1 UNL1 0.000
     3 C      -5.836079     1.872013    -0.244342 C          1 UNL1 0.000
     4 C      -4.610223     1.721465     0.425951 C          1 UNL1 0.000
     5 C      -4.057410     2.866084     1.028966 C          1 UNL1 0.000
     6 C      -4.712556     4.100042     0.982129 C          1 UNL1 0.000
     7 N      -3.924130     0.454490     0.472390 N          1 UNL1 0.000
     8 C      -4.601590    -0.815404     0.571828 C          1 UNL1 0.000
     9 C      -5.818308    -0.951311     1.261831 C          1 UNL1 0.000
    10 C      -6.444551    -2.199796     1.403694 C          1 UNL1 0.000
    11 C      -5.858914    -3.344009     0.866784 C          1 UNL1 0.000
    12 C      -4.664570    -3.226359     0.161836 C          1 UNL1 0.000
    13 C      -4.040311    -1.983009     0.023303 C          1 UNL1 0.000
    14 O      -6.470314     5.482483     0.324426 O          1 UNL1 0.000
    15 C      -7.224371     5.829612    -0.831671 C          1 UNL1 0.000
    16 O      -6.355688    -4.614580     0.947817 O          1 UNL1 0.000
    17 C      -7.313463    -4.850455     1.972173 C          1 UNL1 0.000
    18 C      -2.491753     0.459855     0.403785 C          1 UNL1 0.000
    19 C      -1.726440     0.341313     1.590556 C          1 UNL1 0.000
    20 C      -0.314346     0.346576     1.615055 C          1 UNL1 0.000
    21 C       0.481237     0.429193     0.451480 C          1 UNL1 0.000
    22 C      -0.223520     0.522408    -0.782036 C          1 UNL1 0.000
    23 C      -1.736950     0.554154    -0.805175 C          1 UNL1 0.000
    24 N       0.311722     0.572639    -2.015833 N          1 UNL1 0.000
    25 S      -0.947177     0.692369    -3.084980 S          1 UNL1 0.000
    26 N      -2.237964     0.641747    -2.050912 N          1 UNL1 0.000
    27 H      -7.441500     3.171842    -0.817747 H          1 UNL1 0.000
    28 H      -6.286728     1.024318    -0.755361 H          1 UNL1 0.000
    29 H      -3.114028     2.815279     1.564531 H          1 UNL1 0.000
    30 H      -4.267614     4.965188     1.467032 H          1 UNL1 0.000
    31 H      -6.285930    -0.086251     1.726075 H          1 UNL1 0.000
    32 H      -7.387441    -2.241467     1.938642 H          1 UNL1 0.000
    33 H      -4.205680    -4.109303    -0.276121 H          1 UNL1 0.000
    34 H      -3.112489    -1.945841    -0.540113 H          1 UNL1 0.000
    35 H      -6.670623     5.610671    -1.751369 H          1 UNL1 0.000
    36 H      -7.403278     6.908888    -0.799281 H          1 UNL1 0.000
    37 H      -8.197906     5.330457    -0.829878 H          1 UNL1 0.000
    38 H      -7.471931    -5.931369     2.037063 H          1 UNL1 0.000
    39 H      -8.272500    -4.385579     1.724109 H          1 UNL1 0.000
    40 H      -6.948822    -4.509380     2.947270 H          1 UNL1 0.000
    41 H      -2.257967     0.264165     2.540339 H          1 UNL1 0.000
    42 H       0.184710     0.285387     2.583745 H          1 UNL1 0.000
    43 C       1.932951     0.424333     0.491201 C          1 UNL1 0.000
    44 N       2.510951     1.613233     0.790321 N          1 UNL1 0.000
    45 C       3.860515     1.649508     0.834696 C          1 UNL1 0.000
    46 C       4.669268     0.544195     0.630778 C          1 UNL1 0.000
    47 C       4.059559    -0.673724     0.356419 C          1 UNL1 0.000
    48 C       2.671105    -0.737826     0.280017 C          1 UNL1 0.000
    49 H       4.289040     2.625197     1.045100 H          1 UNL1 0.000
    50 H       5.748539     0.631366     0.683128 H          1 UNL1 0.000
    51 H       4.658647    -1.565512     0.197084 H          1 UNL1 0.000
    52 H       2.176508    -1.678398     0.060472 H          1 UNL1 0.000
@<TRIPOS>BOND
     1      1      2   2
     2      2      3   1
     3      3      4   2
     4      4      5   1
     5      5      6   2
     6      6      1   1
     7      4      7   1
     8      7      8   1
     9      8      9   2
    10      9     10   1
    11     10     11   2
    12     11     12   1
    13     12     13   2
    14     13      8   1
    15     14     15   1
    16      1     14   1
    17     16     17   1
    18     11     16   1
    19     18     19   2
    20     19     20   1
    21     20     21   2
    22     21     22   1
    23     22     23   1
    24     23     18   1
    25     22     24   2
    26     24     25   1
    27     25     26   1
    28     26     23   2
    29      7     18   1
    30      2     27   1
    31      3     28   1
    32      5     29   1
    33      6     30   1
    34      9     31   1
    35     10     32   1
    36     12     33   1
    37     13     34   1
    38     15     35   1
    39     15     36   1
    40     15     37   1
    41     17     38   1
    42     17     39   1
    43     17     40   1
    44     19     41   1
    45     20     42   1
    46     43     44   2
    47     44     45   1
    48     45     46   2
    49     46     47   1
    50     47     48   2
    51     48     43   1
    52     45     49   1
    53     46     50   1
    54     47     51   1
    55     48     52   1
    56     21     43   1
