# Produced with molli package
@<TRIPOS>MOLECULE
B_8_P
57 61 0 0 0
SMALL
USER_CHARGES

@<TRIPOS>ATOM
     1 C      -5.998417     4.201973     0.675220 C          1 UNL1 0.000
     2 C      -6.521818     3.093960     1.334452 C          1 UNL1 0.000
     3 C      -5.843177     1.870008     1.301349 C          1 UNL1 0.000
     4 C      -4.626309     1.731601     0.611557 C          1 UNL1 0.000
     5 C      -4.091648     2.884064     0.002564 C          1 UNL1 0.000
     6 C      -4.766752     4.108603     0.036185 C          1 UNL1 0.000
     7 N      -3.929627     0.469815     0.551741 N          1 UNL1 0.000
     8 C      -4.601545    -0.808319     0.482455 C          1 UNL1 0.000
     9 C      -5.871055    -0.952631    -0.107645 C          1 UNL1 0.000
    10 C      -6.510133    -2.197503    -0.162310 C          1 UNL1 0.000
    11 C      -5.882524    -3.317449     0.370284 C          1 UNL1 0.000
    12 C      -4.609544    -3.219204     0.916860 C          1 UNL1 0.000
    13 C      -3.979904    -1.973586     0.979252 C          1 UNL1 0.000
    14 O      -6.714315     5.365126     0.747255 O          1 UNL1 0.000
    15 C      -6.927885     5.955377    -0.534766 C          1 UNL1 0.000
    16 O      -6.481872    -4.543210     0.288511 O          1 UNL1 0.000
    17 C      -7.266324    -4.783220     1.457327 C          1 UNL1 0.000
    18 C      -2.498085     0.482460     0.458277 C          1 UNL1 0.000
    19 C      -1.716196     0.760861     1.606725 C          1 UNL1 0.000
    20 C      -0.302775     0.741421     1.616737 C          1 UNL1 0.000
    21 C       0.478291     0.456981     0.474801 C          1 UNL1 0.000
    22 C      -0.247439     0.202291    -0.726391 C          1 UNL1 0.000
    23 C      -1.759626     0.211071    -0.734186 C          1 UNL1 0.000
    24 N       0.272681    -0.059050    -1.939791 N          1 UNL1 0.000
    25 S      -0.999890    -0.259838    -2.979434 S          1 UNL1 0.000
    26 N      -2.276498    -0.033868    -1.951297 N          1 UNL1 0.000
    27 H      -7.465667     3.176758     1.866289 H          1 UNL1 0.000
    28 H      -6.273975     1.025901     1.833847 H          1 UNL1 0.000
    29 H      -3.146994     2.842145    -0.533161 H          1 UNL1 0.000
    30 H      -4.310403     4.974559    -0.432528 H          1 UNL1 0.000
    31 H      -6.366779    -0.099790    -0.564367 H          1 UNL1 0.000
    32 H      -7.484272    -2.289073    -0.633100 H          1 UNL1 0.000
    33 H      -4.105968    -4.104596     1.292982 H          1 UNL1 0.000
    34 H      -2.993695    -1.928280     1.432364 H          1 UNL1 0.000
    35 H      -6.008404     6.396828    -0.931574 H          1 UNL1 0.000
    36 H      -7.656990     6.762160    -0.413607 H          1 UNL1 0.000
    37 H      -7.344163     5.228276    -1.241511 H          1 UNL1 0.000
    38 H      -7.513294    -5.848859     1.482111 H          1 UNL1 0.000
    39 H      -8.201257    -4.215416     1.409989 H          1 UNL1 0.000
    40 H      -6.722903    -4.543321     2.378831 H          1 UNL1 0.000
    41 H      -2.234875     0.973360     2.543240 H          1 UNL1 0.000
    42 H       0.204408     0.939326     2.562639 H          1 UNL1 0.000
    43 C       1.936583     0.410821     0.508946 C          1 UNL1 0.000
    44 C       2.692562     1.588445     0.616268 C          1 UNL1 0.000
    45 C       4.089613     1.540861     0.652177 C          1 UNL1 0.000
    46 C       4.741983     0.310592     0.600737 C          1 UNL1 0.000
    47 C       4.009681    -0.865352     0.470358 C          1 UNL1 0.000
    48 C       2.614646    -0.816320     0.434408 C          1 UNL1 0.000
    49 O       6.105394     0.200577     0.597278 O          1 UNL1 0.000
    50 C       6.688167     0.761157     1.772086 C          1 UNL1 0.000
    51 H       2.195987     2.556070     0.647790 H          1 UNL1 0.000
    52 H       4.653748     2.467240     0.692747 H          1 UNL1 0.000
    53 H       4.522521    -1.820242     0.399094 H          1 UNL1 0.000
    54 H       2.056991    -1.745615     0.337293 H          1 UNL1 0.000
    55 H       7.744179     0.475158     1.788622 H          1 UNL1 0.000
    56 H       6.216714     0.362716     2.677739 H          1 UNL1 0.000
    57 H       6.638007     1.854280     1.760090 H          1 UNL1 0.000
@<TRIPOS>BOND
     1      1      2   2
     2      2      3   1
     3      3      4   2
     4      4      5   1
     5      5      6   2
     6      6      1   1
     7      4      7   1
     8      7      8   1
     9      8      9   2
    10      9     10   1
    11     10     11   2
    12     11     12   1
    13     12     13   2
    14     13      8   1
    15     14     15   1
    16      1     14   1
    17     16     17   1
    18     11     16   1
    19     18     19   2
    20     19     20   1
    21     20     21   2
    22     21     22   1
    23     22     23   1
    24     23     18   1
    25     22     24   2
    26     24     25   1
    27     25     26   1
    28     26     23   2
    29      7     18   1
    30      2     27   1
    31      3     28   1
    32      5     29   1
    33      6     30   1
    34      9     31   1
    35     10     32   1
    36     12     33   1
    37     13     34   1
    38     15     35   1
    39     15     36   1
    40     15     37   1
    41     17     38   1
    42     17     39   1
    43     17     40   1
    44     19     41   1
    45     20     42   1
    46     43     44   2
    47     44     45   1
    48     45     46   2
    49     46     47   1
    50     47     48   2
    51     48     43   1
    52     49     50   1
    53     46     49   1
    54     44     51   1
    55     45     52   1
    56     47     53   1
    57     48     54   1
    58     50     55   1
    59     50     56   1
    60     50     57   1
    61     21     43   1
