# Produced with molli package
@<TRIPOS>MOLECULE
B_8_N
50 54 0 0 0
SMALL
USER_CHARGES

@<TRIPOS>ATOM
     1 C      -6.096444     4.293571     0.403324 C          1 UNL1 0.000
     2 C      -6.690311     3.167413    -0.159042 C          1 UNL1 0.000
     3 C      -6.004523     1.944028    -0.169948 C          1 UNL1 0.000
     4 C      -4.732195     1.811392     0.413023 C          1 UNL1 0.000
     5 C      -4.151614     2.974972     0.958991 C          1 UNL1 0.000
     6 C      -4.830536     4.197897     0.966808 C          1 UNL1 0.000
     7 N      -4.027762     0.549568     0.442192 N          1 UNL1 0.000
     8 C      -4.675120    -0.743274     0.505070 C          1 UNL1 0.000
     9 C      -5.931975    -0.927482     1.109473 C          1 UNL1 0.000
    10 C      -6.535359    -2.194483     1.180784 C          1 UNL1 0.000
    11 C      -5.873357    -3.312573     0.680834 C          1 UNL1 0.000
    12 C      -4.634416    -3.155783     0.072149 C          1 UNL1 0.000
    13 C      -4.040572    -1.893169    -0.006067 C          1 UNL1 0.000
    14 O      -6.737010     5.495997     0.516684 O          1 UNL1 0.000
    15 C      -7.153245     6.018268    -0.742624 C          1 UNL1 0.000
    16 O      -6.354041    -4.590672     0.706580 O          1 UNL1 0.000
    17 C      -7.119222    -4.925479     1.858949 C          1 UNL1 0.000
    18 C      -2.594187     0.582368     0.363163 C          1 UNL1 0.000
    19 C      -1.816652     0.442091     1.543794 C          1 UNL1 0.000
    20 C      -0.404215     0.457162     1.560352 C          1 UNL1 0.000
    21 C       0.363724     0.591971     0.390275 C          1 UNL1 0.000
    22 C      -0.339801     0.711216    -0.841685 C          1 UNL1 0.000
    23 C      -1.852752     0.715867    -0.851420 C          1 UNL1 0.000
    24 N       0.187525     0.817864    -2.073622 N          1 UNL1 0.000
    25 S      -1.082067     0.905665    -3.134726 S          1 UNL1 0.000
    26 N      -2.364547     0.823043    -2.091576 N          1 UNL1 0.000
    27 H      -7.692504     3.214994    -0.573017 H          1 UNL1 0.000
    28 H      -6.480604     1.093612    -0.651579 H          1 UNL1 0.000
    29 H      -3.167457     2.946719     1.417138 H          1 UNL1 0.000
    30 H      -4.368496     5.072367     1.416656 H          1 UNL1 0.000
    31 H      -6.459836    -0.087649     1.554287 H          1 UNL1 0.000
    32 H      -7.521957    -2.279875     1.625607 H          1 UNL1 0.000
    33 H      -4.117572    -4.021001    -0.334854 H          1 UNL1 0.000
    34 H      -3.072483    -1.831168    -0.493988 H          1 UNL1 0.000
    35 H      -6.299392     6.133211    -1.419124 H          1 UNL1 0.000
    36 H      -7.578886     7.010861    -0.564700 H          1 UNL1 0.000
    37 H      -7.931700     5.402382    -1.202512 H          1 UNL1 0.000
    38 H      -7.011919    -6.002207     2.024028 H          1 UNL1 0.000
    39 H      -8.177078    -4.709962     1.683287 H          1 UNL1 0.000
    40 H      -6.763635    -4.418624     2.763044 H          1 UNL1 0.000
    41 H      -2.342103     0.329420     2.493647 H          1 UNL1 0.000
    42 H       0.103253     0.357953     2.520882 H          1 UNL1 0.000
    43 C       1.808463     0.587288     0.421650 C          1 UNL1 0.000
    44 C       2.526373     1.761844     0.522132 C          1 UNL1 0.000
    45 S       4.216194     1.486441     0.553421 S          1 UNL1 0.000
    46 C       3.998210    -0.205785     0.430088 C          1 UNL1 0.000
    47 C       2.666319    -0.553651     0.371684 C          1 UNL1 0.000
    48 H       2.148814     2.774279     0.574109 H          1 UNL1 0.000
    49 H       4.856327    -0.863145     0.404013 H          1 UNL1 0.000
    50 H       2.325527    -1.578537     0.287549 H          1 UNL1 0.000
@<TRIPOS>BOND
     1      1      2   2
     2      2      3   1
     3      3      4   2
     4      4      5   1
     5      5      6   2
     6      6      1   1
     7      4      7   1
     8      7      8   1
     9      8      9   2
    10      9     10   1
    11     10     11   2
    12     11     12   1
    13     12     13   2
    14     13      8   1
    15     14     15   1
    16      1     14   1
    17     16     17   1
    18     11     16   1
    19     18     19   2
    20     19     20   1
    21     20     21   2
    22     21     22   1
    23     22     23   1
    24     23     18   1
    25     22     24   2
    26     24     25   1
    27     25     26   1
    28     26     23   2
    29      7     18   1
    30      2     27   1
    31      3     28   1
    32      5     29   1
    33      6     30   1
    34      9     31   1
    35     10     32   1
    36     12     33   1
    37     13     34   1
    38     15     35   1
    39     15     36   1
    40     15     37   1
    41     17     38   1
    42     17     39   1
    43     17     40   1
    44     19     41   1
    45     20     42   1
    46     43     44   2
    47     44     45   1
    48     45     46   1
    49     46     47   2
    50     47     43   1
    51     44     48   1
    52     46     49   1
    53     47     50   1
    54     21     43   1
