# Produced with molli package
@<TRIPOS>MOLECULE
B_8_Q
51 55 0 0 0
SMALL
USER_CHARGES

@<TRIPOS>ATOM
     1 C      -6.038797     4.235991     0.696116 C          1 UNL1 0.000
     2 C      -6.540091     3.119927     1.358769 C          1 UNL1 0.000
     3 C      -5.862680     1.898500     1.288777 C          1 UNL1 0.000
     4 C      -4.665369     1.772139     0.562267 C          1 UNL1 0.000
     5 C      -4.149714     2.928666    -0.051763 C          1 UNL1 0.000
     6 C      -4.827522     4.150887     0.015523 C          1 UNL1 0.000
     7 N      -3.980434     0.507043     0.458066 N          1 UNL1 0.000
     8 C      -4.688957    -0.747390     0.399862 C          1 UNL1 0.000
     9 C      -5.928556    -0.860135    -0.251639 C          1 UNL1 0.000
    10 C      -6.638492    -2.064712    -0.248435 C          1 UNL1 0.000
    11 C      -6.128594    -3.178576     0.413089 C          1 UNL1 0.000
    12 C      -4.871200    -3.109977     1.007715 C          1 UNL1 0.000
    13 C      -4.158967    -1.904647     1.000172 C          1 UNL1 0.000
    14 O      -6.762769     5.391215     0.804901 O          1 UNL1 0.000
    15 C      -6.959023     6.044082    -0.448332 C          1 UNL1 0.000
    16 O      -6.914979    -4.297385     0.397288 O          1 UNL1 0.000
    17 C      -6.881322    -5.049388     1.607826 C          1 UNL1 0.000
    18 C      -2.550244     0.494103     0.362838 C          1 UNL1 0.000
    19 C      -1.759114     0.919857     1.455323 C          1 UNL1 0.000
    20 C      -0.344763     0.916294     1.450218 C          1 UNL1 0.000
    21 C       0.442797     0.491941     0.351061 C          1 UNL1 0.000
    22 C      -0.298891     0.082894    -0.794256 C          1 UNL1 0.000
    23 C      -1.815018     0.079002    -0.789847 C          1 UNL1 0.000
    24 N       0.207269    -0.320699    -1.976459 N          1 UNL1 0.000
    25 S      -1.073430    -0.642800    -2.974316 S          1 UNL1 0.000
    26 N      -2.338175    -0.315938    -1.962165 N          1 UNL1 0.000
    27 H      -7.468169     3.193473     1.919061 H          1 UNL1 0.000
    28 H      -6.279202     1.044991     1.818098 H          1 UNL1 0.000
    29 H      -3.222332     2.888657    -0.617465 H          1 UNL1 0.000
    30 H      -4.388756     5.021399    -0.461174 H          1 UNL1 0.000
    31 H      -6.351978    -0.008878    -0.778954 H          1 UNL1 0.000
    32 H      -7.601118    -2.125614    -0.748886 H          1 UNL1 0.000
    33 H      -4.423230    -3.978552     1.479219 H          1 UNL1 0.000
    34 H      -3.194103    -1.875565     1.498914 H          1 UNL1 0.000
    35 H      -6.046418     6.548556    -0.780131 H          1 UNL1 0.000
    36 H      -7.729558     6.808353    -0.309091 H          1 UNL1 0.000
    37 H      -7.315234     5.343450    -1.212461 H          1 UNL1 0.000
    38 H      -5.996850    -5.692934     1.638455 H          1 UNL1 0.000
    39 H      -7.766743    -5.692045     1.626479 H          1 UNL1 0.000
    40 H      -6.922936    -4.401996     2.491715 H          1 UNL1 0.000
    41 H      -2.266440     1.254026     2.362657 H          1 UNL1 0.000
    42 H       0.166606     1.257454     2.353279 H          1 UNL1 0.000
    43 C       1.904301     0.503959     0.377669 C          1 UNL1 0.000
    44 N       2.474197     1.566670     1.008293 N          1 UNL1 0.000
    45 C       3.827732     1.589717     1.040050 C          1 UNL1 0.000
    46 C       4.602577     0.582971     0.493216 C          1 UNL1 0.000
    47 N       4.060390    -0.493228    -0.112402 N          1 UNL1 0.000
    48 C       2.702881    -0.505470    -0.162410 C          1 UNL1 0.000
    49 H       4.276853     2.450501     1.521549 H          1 UNL1 0.000
    50 H       5.685308     0.615542     0.528604 H          1 UNL1 0.000
    51 H       2.275523    -1.378058    -0.645083 H          1 UNL1 0.000
@<TRIPOS>BOND
     1      1      2   2
     2      2      3   1
     3      3      4   2
     4      4      5   1
     5      5      6   2
     6      6      1   1
     7      4      7   1
     8      7      8   1
     9      8      9   2
    10      9     10   1
    11     10     11   2
    12     11     12   1
    13     12     13   2
    14     13      8   1
    15     14     15   1
    16      1     14   1
    17     16     17   1
    18     11     16   1
    19     18     19   2
    20     19     20   1
    21     20     21   2
    22     21     22   1
    23     22     23   1
    24     23     18   1
    25     22     24   2
    26     24     25   1
    27     25     26   1
    28     26     23   2
    29      7     18   1
    30      2     27   1
    31      3     28   1
    32      5     29   1
    33      6     30   1
    34      9     31   1
    35     10     32   1
    36     12     33   1
    37     13     34   1
    38     15     35   1
    39     15     36   1
    40     15     37   1
    41     17     38   1
    42     17     39   1
    43     17     40   1
    44     19     41   1
    45     20     42   1
    46     43     44   2
    47     44     45   1
    48     45     46   2
    49     46     47   1
    50     47     48   2
    51     48     43   1
    52     45     49   1
    53     46     50   1
    54     48     51   1
    55     21     43   1
