# Produced with molli package
@<TRIPOS>MOLECULE
B_9_N
49 52 0 0 0
SMALL
USER_CHARGES

@<TRIPOS>ATOM
     1 C      -5.259962     4.318520     1.871366 C          1 UNL1 0.000
     2 C      -5.796277     3.207354     2.513999 C          1 UNL1 0.000
     3 C      -5.130635     1.978279     2.461261 C          1 UNL1 0.000
     4 C      -3.912475     1.840889     1.772435 C          1 UNL1 0.000
     5 C      -3.363837     2.994878     1.180314 C          1 UNL1 0.000
     6 C      -4.029060     4.224003     1.229629 C          1 UNL1 0.000
     7 N      -3.226121     0.571849     1.693810 N          1 UNL1 0.000
     8 C      -3.929377    -0.685544     1.629030 C          1 UNL1 0.000
     9 C      -5.172187    -0.796096     0.981523 C          1 UNL1 0.000
    10 C      -5.887263    -1.998065     0.986092 C          1 UNL1 0.000
    11 C      -5.378208    -3.116868     1.639727 C          1 UNL1 0.000
    12 C      -4.115382    -3.052788     2.222899 C          1 UNL1 0.000
    13 C      -3.398196    -1.849196     2.213843 C          1 UNL1 0.000
    14 O      -5.957417     5.491341     1.964041 O          1 UNL1 0.000
    15 C      -6.226858     6.059181     0.682738 C          1 UNL1 0.000
    16 O      -6.176710    -4.226792     1.626588 O          1 UNL1 0.000
    17 C      -6.067564    -5.051913     2.783229 C          1 UNL1 0.000
    18 C      -1.790482     0.575858     1.735166 C          1 UNL1 0.000
    19 C      -1.119770     0.891280     2.926777 C          1 UNL1 0.000
    20 C       0.272444     0.958065     2.956633 C          1 UNL1 0.000
    21 C       1.002998     0.748637     1.786253 C          1 UNL1 0.000
    22 C       0.346517     0.445745     0.586985 C          1 UNL1 0.000
    23 C      -1.048669     0.331057     0.569788 C          1 UNL1 0.000
    24 H      -6.737276     3.292279     3.050182 H          1 UNL1 0.000
    25 H      -5.568265     1.130115     2.981818 H          1 UNL1 0.000
    26 H      -2.412810     2.947663     0.655847 H          1 UNL1 0.000
    27 H      -3.566242     5.094551     0.776053 H          1 UNL1 0.000
    28 H      -5.601227     0.057678     0.462689 H          1 UNL1 0.000
    29 H      -6.855692    -2.051739     0.495628 H          1 UNL1 0.000
    30 H      -3.664146    -3.921535     2.690877 H          1 UNL1 0.000
    31 H      -2.427682    -1.827969     2.703047 H          1 UNL1 0.000
    32 H      -5.321377     6.475253     0.230269 H          1 UNL1 0.000
    33 H      -6.935417     6.880775     0.824307 H          1 UNL1 0.000
    34 H      -6.690756     5.325505     0.013457 H          1 UNL1 0.000
    35 H      -5.178320    -5.686675     2.722768 H          1 UNL1 0.000
    36 H      -6.945527    -5.704444     2.812266 H          1 UNL1 0.000
    37 H      -6.063964    -4.460552     3.706312 H          1 UNL1 0.000
    38 H      -1.690143     1.083579     3.832546 H          1 UNL1 0.000
    39 H       0.785608     1.193290     3.885185 H          1 UNL1 0.000
    40 H       2.087475     0.831081     1.814121 H          1 UNL1 0.000
    41 H      -1.573486     0.119394    -0.358773 H          1 UNL1 0.000
    42 C       1.108660     0.336272    -0.646672 C          1 UNL1 0.000
    43 C       1.102113    -0.810280    -1.414239 C          1 UNL1 0.000
    44 S       2.069863    -0.657516    -2.819674 S          1 UNL1 0.000
    45 C       2.500695     0.947826    -2.417553 C          1 UNL1 0.000
    46 C       1.927303     1.353957    -1.232812 C          1 UNL1 0.000
    47 H       0.581011    -1.739085    -1.223139 H          1 UNL1 0.000
    48 H       3.150256     1.517694    -3.067706 H          1 UNL1 0.000
    49 H       2.073173     2.341915    -0.812864 H          1 UNL1 0.000
@<TRIPOS>BOND
     1      1      2   2
     2      2      3   1
     3      3      4   2
     4      4      5   1
     5      5      6   2
     6      6      1   1
     7      4      7   1
     8      7      8   1
     9      8      9   2
    10      9     10   1
    11     10     11   2
    12     11     12   1
    13     12     13   2
    14     13      8   1
    15     14     15   1
    16      1     14   1
    17     16     17   1
    18     11     16   1
    19     18     19   2
    20     19     20   1
    21     20     21   2
    22     21     22   1
    23     22     23   2
    24     23     18   1
    25      7     18   1
    26      2     24   1
    27      3     25   1
    28      5     26   1
    29      6     27   1
    30      9     28   1
    31     10     29   1
    32     12     30   1
    33     13     31   1
    34     15     32   1
    35     15     33   1
    36     15     34   1
    37     17     35   1
    38     17     36   1
    39     17     37   1
    40     19     38   1
    41     20     39   1
    42     21     40   1
    43     23     41   1
    44     42     43   2
    45     43     44   1
    46     44     45   1
    47     45     46   2
    48     46     42   1
    49     43     47   1
    50     45     48   1
    51     46     49   1
    52     22     42   1
