# Produced with molli package
@<TRIPOS>MOLECULE
B_9_K
54 57 0 0 0
SMALL
USER_CHARGES

@<TRIPOS>ATOM
     1 C      -5.251545     4.286011     2.014683 C          1 UNL1 0.000
     2 C      -5.811553     3.151999     2.592469 C          1 UNL1 0.000
     3 C      -5.146235     1.923593     2.510663 C          1 UNL1 0.000
     4 C      -3.909564     1.805917     1.850289 C          1 UNL1 0.000
     5 C      -3.335501     2.985156     1.335974 C          1 UNL1 0.000
     6 C      -3.997391     4.214736     1.417807 C          1 UNL1 0.000
     7 N      -3.234295     0.533500     1.721417 N          1 UNL1 0.000
     8 C      -3.941295    -0.720572     1.599732 C          1 UNL1 0.000
     9 C      -5.202435    -0.795110     0.981361 C          1 UNL1 0.000
    10 C      -5.916612    -1.995882     0.930772 C          1 UNL1 0.000
    11 C      -5.383350    -3.148051     1.496993 C          1 UNL1 0.000
    12 C      -4.101296    -3.125821     2.037218 C          1 UNL1 0.000
    13 C      -3.388495    -1.921349     2.087043 C          1 UNL1 0.000
    14 O      -5.947442     5.458368     2.122642 O          1 UNL1 0.000
    15 C      -6.211553     6.037654     0.844628 C          1 UNL1 0.000
    16 O      -6.162672    -4.269604     1.451354 O          1 UNL1 0.000
    17 C      -6.247550    -4.941311     2.707698 C          1 UNL1 0.000
    18 C      -1.798389     0.522023     1.739411 C          1 UNL1 0.000
    19 C      -1.106387     0.669772     2.949486 C          1 UNL1 0.000
    20 C       0.286734     0.678715     2.964371 C          1 UNL1 0.000
    21 C       0.996201     0.579710     1.766025 C          1 UNL1 0.000
    22 C       0.324515     0.460002     0.539387 C          1 UNL1 0.000
    23 C      -1.076645     0.402883     0.541233 C          1 UNL1 0.000
    24 H      -6.770567     3.217905     3.098618 H          1 UNL1 0.000
    25 H      -5.604208     1.058237     2.983189 H          1 UNL1 0.000
    26 H      -2.366502     2.961426     0.845063 H          1 UNL1 0.000
    27 H      -3.517294     5.104035     1.021916 H          1 UNL1 0.000
    28 H      -5.648466     0.086030     0.527264 H          1 UNL1 0.000
    29 H      -6.899670    -2.024004     0.469035 H          1 UNL1 0.000
    30 H      -3.644368    -4.030935     2.425347 H          1 UNL1 0.000
    31 H      -2.401344    -1.932579     2.541697 H          1 UNL1 0.000
    32 H      -5.300826     6.441149     0.390883 H          1 UNL1 0.000
    33 H      -6.906752     6.869629     0.991809 H          1 UNL1 0.000
    34 H      -6.688272     5.314428     0.172837 H          1 UNL1 0.000
    35 H      -5.517543    -5.755278     2.743607 H          1 UNL1 0.000
    36 H      -7.249844    -5.373558     2.786698 H          1 UNL1 0.000
    37 H      -6.110980    -4.269267     3.563739 H          1 UNL1 0.000
    38 H      -1.659824     0.767706     3.880203 H          1 UNL1 0.000
    39 H       0.819641     0.780197     3.906165 H          1 UNL1 0.000
    40 H       2.083776     0.618623     1.789905 H          1 UNL1 0.000
    41 H      -1.620588     0.309683    -0.396658 H          1 UNL1 0.000
    42 C       1.072488     0.459607    -0.719446 C          1 UNL1 0.000
    43 C       1.248629     1.659359    -1.431589 C          1 UNL1 0.000
    44 C       1.981158     1.688093    -2.620601 C          1 UNL1 0.000
    45 C       2.540212     0.502290    -3.107783 C          1 UNL1 0.000
    46 C       2.369422    -0.705344    -2.419446 C          1 UNL1 0.000
    47 C       1.638119    -0.719817    -1.227213 C          1 UNL1 0.000
    48 N       3.318517     0.525959    -4.349180 N          1 UNL1 0.000
    49 O       3.732497     1.625993    -4.746219 O          1 UNL1 0.000
    50 O       3.517515    -0.551959    -4.924538 O          1 UNL1 0.000
    51 H       0.817398     2.584451    -1.050807 H          1 UNL1 0.000
    52 H       2.105408     2.632122    -3.147154 H          1 UNL1 0.000
    53 H       2.800379    -1.632763    -2.790554 H          1 UNL1 0.000
    54 H       1.510414    -1.658794    -0.690700 H          1 UNL1 0.000
@<TRIPOS>BOND
     1      1      2   2
     2      2      3   1
     3      3      4   2
     4      4      5   1
     5      5      6   2
     6      6      1   1
     7      4      7   1
     8      7      8   1
     9      8      9   2
    10      9     10   1
    11     10     11   2
    12     11     12   1
    13     12     13   2
    14     13      8   1
    15     14     15   1
    16      1     14   1
    17     16     17   1
    18     11     16   1
    19     18     19   2
    20     19     20   1
    21     20     21   2
    22     21     22   1
    23     22     23   2
    24     23     18   1
    25      7     18   1
    26      2     24   1
    27      3     25   1
    28      5     26   1
    29      6     27   1
    30      9     28   1
    31     10     29   1
    32     12     30   1
    33     13     31   1
    34     15     32   1
    35     15     33   1
    36     15     34   1
    37     17     35   1
    38     17     36   1
    39     17     37   1
    40     19     38   1
    41     20     39   1
    42     21     40   1
    43     23     41   1
    44     42     43   2
    45     43     44   1
    46     44     45   2
    47     45     46   1
    48     46     47   2
    49     47     42   1
    50     48     49   2
    51     48     50   1
    52     45     48   1
    53     43     51   1
    54     44     52   1
    55     46     53   1
    56     47     54   1
    57     22     42   1
