# Produced with molli package
@<TRIPOS>MOLECULE
B_9_M
53 56 0 0 0
SMALL
USER_CHARGES

@<TRIPOS>ATOM
     1 C      -5.213975     4.217927     1.676811 C          1 UNL1 0.000
     2 C      -5.856302     3.099880     1.154578 C          1 UNL1 0.000
     3 C      -5.200233     1.859644     1.132669 C          1 UNL1 0.000
     4 C      -3.918633     1.695210     1.686891 C          1 UNL1 0.000
     5 C      -3.282095     2.859873     2.168057 C          1 UNL1 0.000
     6 C      -3.924673     4.102059     2.176230 C          1 UNL1 0.000
     7 N      -3.258421     0.406178     1.758645 N          1 UNL1 0.000
     8 C      -3.944197    -0.869346     1.877646 C          1 UNL1 0.000
     9 C      -5.265819    -0.991203     2.347466 C          1 UNL1 0.000
    10 C      -5.919503    -2.234620     2.408592 C          1 UNL1 0.000
    11 C      -5.239605    -3.395553     2.056269 C          1 UNL1 0.000
    12 C      -3.923500    -3.312675     1.623519 C          1 UNL1 0.000
    13 C      -3.284002    -2.071485     1.545229 C          1 UNL1 0.000
    14 O      -5.830183     5.429913     1.814407 O          1 UNL1 0.000
    15 C      -6.246614     5.973950     0.565167 C          1 UNL1 0.000
    16 O      -5.790562    -4.644498     2.055829 O          1 UNL1 0.000
    17 C      -6.545336    -4.954982     3.222687 C          1 UNL1 0.000
    18 C      -1.816726     0.397295     1.774987 C          1 UNL1 0.000
    19 C      -1.127264     0.335179     2.995234 C          1 UNL1 0.000
    20 C       0.265049     0.340354     3.014066 C          1 UNL1 0.000
    21 C       0.976318     0.368374     1.813286 C          1 UNL1 0.000
    22 C       0.310076     0.403652     0.577183 C          1 UNL1 0.000
    23 C      -1.092430     0.440714     0.571098 C          1 UNL1 0.000
    24 H      -6.875699     3.167107     0.787464 H          1 UNL1 0.000
    25 H      -5.718377     1.020307     0.676781 H          1 UNL1 0.000
    26 H      -2.277694     2.819888     2.579987 H          1 UNL1 0.000
    27 H      -3.417789     4.971607     2.585098 H          1 UNL1 0.000
    28 H      -5.818501    -0.120984     2.689798 H          1 UNL1 0.000
    29 H      -6.958485    -2.271533     2.722405 H          1 UNL1 0.000
    30 H      -3.385613    -4.216611     1.350968 H          1 UNL1 0.000
    31 H      -2.252451    -2.069632     1.204691 H          1 UNL1 0.000
    32 H      -5.393441     6.092078    -0.111472 H          1 UNL1 0.000
    33 H      -6.664054     6.966794     0.759700 H          1 UNL1 0.000
    34 H      -7.030186     5.369810     0.098384 H          1 UNL1 0.000
    35 H      -6.361912    -6.007632     3.460759 H          1 UNL1 0.000
    36 H      -7.612289    -4.831100     3.016438 H          1 UNL1 0.000
    37 H      -6.253168    -4.363435     4.097489 H          1 UNL1 0.000
    38 H      -1.683422     0.305445     3.928929 H          1 UNL1 0.000
    39 H       0.796863     0.318922     3.961521 H          1 UNL1 0.000
    40 H       2.064612     0.361481     1.843307 H          1 UNL1 0.000
    41 H      -1.634855     0.467437    -0.371769 H          1 UNL1 0.000
    42 C       1.075643     0.377826    -0.672554 C          1 UNL1 0.000
    43 C       1.252977     1.540651    -1.435627 C          1 UNL1 0.000
    44 C       2.022422     1.518337    -2.604169 C          1 UNL1 0.000
    45 C       2.620440     0.328217    -3.029269 C          1 UNL1 0.000
    46 C       2.439478    -0.840381    -2.285242 C          1 UNL1 0.000
    47 C       1.673571    -0.813311    -1.115612 C          1 UNL1 0.000
    48 C       3.423269     0.307681    -4.218166 C          1 UNL1 0.000
    49 N       4.076493     0.290752    -5.175572 N          1 UNL1 0.000
    50 H       0.802839     2.477594    -1.111872 H          1 UNL1 0.000
    51 H       2.155753     2.437244    -3.172080 H          1 UNL1 0.000
    52 H       2.895161    -1.776313    -2.603496 H          1 UNL1 0.000
    53 H       1.545545    -1.731382    -0.543903 H          1 UNL1 0.000
@<TRIPOS>BOND
     1      1      2   2
     2      2      3   1
     3      3      4   2
     4      4      5   1
     5      5      6   2
     6      6      1   1
     7      4      7   1
     8      7      8   1
     9      8      9   2
    10      9     10   1
    11     10     11   2
    12     11     12   1
    13     12     13   2
    14     13      8   1
    15     14     15   1
    16      1     14   1
    17     16     17   1
    18     11     16   1
    19     18     19   2
    20     19     20   1
    21     20     21   2
    22     21     22   1
    23     22     23   2
    24     23     18   1
    25      7     18   1
    26      2     24   1
    27      3     25   1
    28      5     26   1
    29      6     27   1
    30      9     28   1
    31     10     29   1
    32     12     30   1
    33     13     31   1
    34     15     32   1
    35     15     33   1
    36     15     34   1
    37     17     35   1
    38     17     36   1
    39     17     37   1
    40     19     38   1
    41     20     39   1
    42     21     40   1
    43     23     41   1
    44     42     43   2
    45     43     44   1
    46     44     45   2
    47     45     46   1
    48     46     47   2
    49     47     42   1
    50     48     49   3
    51     45     48   1
    52     43     50   1
    53     44     51   1
    54     46     52   1
    55     47     53   1
    56     22     42   1
