# Produced with molli package
@<TRIPOS>MOLECULE
B_9_P
56 59 0 0 0
SMALL
USER_CHARGES

@<TRIPOS>ATOM
     1 C      -5.231618     4.256058     1.569218 C          1 UNL1 0.000
     2 C      -5.786661     3.141121     0.946027 C          1 UNL1 0.000
     3 C      -5.102416     1.917356     0.961216 C          1 UNL1 0.000
     4 C      -3.865009     1.778124     1.614929 C          1 UNL1 0.000
     5 C      -3.321963     2.925200     2.223467 C          1 UNL1 0.000
     6 C      -4.006542     4.144413     2.217210 C          1 UNL1 0.000
     7 N      -3.169237     0.515061     1.654401 N          1 UNL1 0.000
     8 C      -3.841920    -0.761149     1.749558 C          1 UNL1 0.000
     9 C      -5.073339    -0.908312     2.409210 C          1 UNL1 0.000
    10 C      -5.688449    -2.163605     2.538949 C          1 UNL1 0.000
    11 C      -5.074949    -3.303367     2.022784 C          1 UNL1 0.000
    12 C      -3.863391    -3.175235     1.350174 C          1 UNL1 0.000
    13 C      -3.251007    -1.925159     1.222483 C          1 UNL1 0.000
    14 O      -5.852622     5.471296     1.652990 O          1 UNL1 0.000
    15 C      -6.359746     5.938136     0.406176 C          1 UNL1 0.000
    16 O      -5.558762    -4.579318     2.099083 O          1 UNL1 0.000
    17 C      -6.533966    -4.821302     3.105465 C          1 UNL1 0.000
    18 C      -1.732410     0.516332     1.707293 C          1 UNL1 0.000
    19 C      -1.071356     0.293670     2.923934 C          1 UNL1 0.000
    20 C       0.318980     0.231204     2.965677 C          1 UNL1 0.000
    21 C       1.054749     0.345669     1.784951 C          1 UNL1 0.000
    22 C       0.415133     0.544328     0.550240 C          1 UNL1 0.000
    23 C      -0.982581     0.665401     0.530166 C          1 UNL1 0.000
    24 H      -6.757890     3.192578     0.465095 H          1 UNL1 0.000
    25 H      -5.548579     1.068770     0.447598 H          1 UNL1 0.000
    26 H      -2.367952     2.880785     2.741427 H          1 UNL1 0.000
    27 H      -3.577376     5.007719     2.718695 H          1 UNL1 0.000
    28 H      -5.560867    -0.048848     2.862927 H          1 UNL1 0.000
    29 H      -6.643522    -2.215068     3.050616 H          1 UNL1 0.000
    30 H      -3.378840    -4.055137     0.934169 H          1 UNL1 0.000
    31 H      -2.301318    -1.877131     0.696418 H          1 UNL1 0.000
    32 H      -5.588636     5.906692    -0.371495 H          1 UNL1 0.000
    33 H      -6.658733     6.982389     0.540587 H          1 UNL1 0.000
    34 H      -7.246978     5.376653     0.099234 H          1 UNL1 0.000
    35 H      -6.671777    -5.904257     3.181990 H          1 UNL1 0.000
    36 H      -7.496108    -4.379424     2.828968 H          1 UNL1 0.000
    37 H      -6.199360    -4.459754     4.084007 H          1 UNL1 0.000
    38 H      -1.648049     0.170049     3.837144 H          1 UNL1 0.000
    39 H       0.828130     0.068983     3.911791 H          1 UNL1 0.000
    40 H       2.139134     0.261189     1.827163 H          1 UNL1 0.000
    41 H      -1.504059     0.803962    -0.414855 H          1 UNL1 0.000
    42 C       1.184266     0.537975    -0.698561 C          1 UNL1 0.000
    43 C       1.318236     1.692766    -1.484342 C          1 UNL1 0.000
    44 C       2.041743     1.660175    -2.680393 C          1 UNL1 0.000
    45 C       2.640775     0.472231    -3.091434 C          1 UNL1 0.000
    46 C       2.498530    -0.691234    -2.343345 C          1 UNL1 0.000
    47 C       1.781944    -0.653851    -1.146815 C          1 UNL1 0.000
    48 O       3.315044     0.420459    -4.280131 O          1 UNL1 0.000
    49 C       4.681988     0.780069    -4.079465 C          1 UNL1 0.000
    50 H       0.855086     2.624930    -1.167952 H          1 UNL1 0.000
    51 H       2.129081     2.554812    -3.289395 H          1 UNL1 0.000
    52 H       2.936148    -1.622565    -2.689685 H          1 UNL1 0.000
    53 H       1.671189    -1.569264    -0.568514 H          1 UNL1 0.000
    54 H       5.217020     0.598017    -5.016325 H          1 UNL1 0.000
    55 H       5.151038     0.169514    -3.299265 H          1 UNL1 0.000
    56 H       4.771831     1.844194    -3.836639 H          1 UNL1 0.000
@<TRIPOS>BOND
     1      1      2   2
     2      2      3   1
     3      3      4   2
     4      4      5   1
     5      5      6   2
     6      6      1   1
     7      4      7   1
     8      7      8   1
     9      8      9   2
    10      9     10   1
    11     10     11   2
    12     11     12   1
    13     12     13   2
    14     13      8   1
    15     14     15   1
    16      1     14   1
    17     16     17   1
    18     11     16   1
    19     18     19   2
    20     19     20   1
    21     20     21   2
    22     21     22   1
    23     22     23   2
    24     23     18   1
    25      7     18   1
    26      2     24   1
    27      3     25   1
    28      5     26   1
    29      6     27   1
    30      9     28   1
    31     10     29   1
    32     12     30   1
    33     13     31   1
    34     15     32   1
    35     15     33   1
    36     15     34   1
    37     17     35   1
    38     17     36   1
    39     17     37   1
    40     19     38   1
    41     20     39   1
    42     21     40   1
    43     23     41   1
    44     42     43   2
    45     43     44   1
    46     44     45   2
    47     45     46   1
    48     46     47   2
    49     47     42   1
    50     48     49   1
    51     45     48   1
    52     43     50   1
    53     44     51   1
    54     46     52   1
    55     47     53   1
    56     49     54   1
    57     49     55   1
    58     49     56   1
    59     22     42   1
