# Produced with molli package
@<TRIPOS>MOLECULE
B_9_Q
50 53 0 0 0
SMALL
USER_CHARGES

@<TRIPOS>ATOM
     1 C      -5.316236     4.254627     2.029678 C          1 UNL1 0.000
     2 C      -5.865115     3.123821     2.624511 C          1 UNL1 0.000
     3 C      -5.192539     1.897859     2.553166 C          1 UNL1 0.000
     4 C      -3.959869     1.779954     1.886290 C          1 UNL1 0.000
     5 C      -3.402548     2.956496     1.344777 C          1 UNL1 0.000
     6 C      -4.069852     4.183251     1.418214 C          1 UNL1 0.000
     7 N      -3.261742     0.517150     1.788289 N          1 UNL1 0.000
     8 C      -3.932177    -0.761741     1.715764 C          1 UNL1 0.000
     9 C      -5.209661    -0.898401     1.140532 C          1 UNL1 0.000
    10 C      -5.864577    -2.135133     1.106636 C          1 UNL1 0.000
    11 C      -5.247523    -3.257757     1.643689 C          1 UNL1 0.000
    12 C      -3.958783    -3.171937     2.157295 C          1 UNL1 0.000
    13 C      -3.311418    -1.933322     2.196443 C          1 UNL1 0.000
    14 O      -6.005205     5.430818     2.140516 O          1 UNL1 0.000
    15 C      -6.347097     5.960321     0.859349 C          1 UNL1 0.000
    16 O      -5.900541    -4.455459     1.584928 O          1 UNL1 0.000
    17 C      -6.323678    -4.885764     2.879904 C          1 UNL1 0.000
    18 C      -1.824588     0.541362     1.781984 C          1 UNL1 0.000
    19 C      -1.117799     0.741580     2.976239 C          1 UNL1 0.000
    20 C       0.274835     0.782332     2.968179 C          1 UNL1 0.000
    21 C       0.967602     0.657081     1.762743 C          1 UNL1 0.000
    22 C       0.280873     0.476314     0.550542 C          1 UNL1 0.000
    23 C      -1.119718     0.397284     0.577197 C          1 UNL1 0.000
    24 H      -6.817799     3.191949     3.141956 H          1 UNL1 0.000
    25 H      -5.638120     1.037833     3.046062 H          1 UNL1 0.000
    26 H      -2.437635     2.934885     0.843859 H          1 UNL1 0.000
    27 H      -3.598350     5.070529     1.007235 H          1 UNL1 0.000
    28 H      -5.708207    -0.042462     0.692933 H          1 UNL1 0.000
    29 H      -6.852461    -2.216959     0.662784 H          1 UNL1 0.000
    30 H      -3.454235    -4.058985     2.528151 H          1 UNL1 0.000
    31 H      -2.314082    -1.897164     2.626532 H          1 UNL1 0.000
    32 H      -5.461046     6.279597     0.301294 H          1 UNL1 0.000
    33 H      -6.974580     6.842353     1.018975 H          1 UNL1 0.000
    34 H      -6.925861     5.234009     0.277496 H          1 UNL1 0.000
    35 H      -6.070031    -5.944384     2.989187 H          1 UNL1 0.000
    36 H      -7.411459    -4.782990     2.942087 H          1 UNL1 0.000
    37 H      -5.869492    -4.332760     3.710945 H          1 UNL1 0.000
    38 H      -1.659431     0.859961     3.911204 H          1 UNL1 0.000
    39 H       0.819189     0.932539     3.896952 H          1 UNL1 0.000
    40 H       2.054040     0.729554     1.765951 H          1 UNL1 0.000
    41 H      -1.675336     0.273438    -0.350699 H          1 UNL1 0.000
    42 C       1.005132     0.427222    -0.714643 C          1 UNL1 0.000
    43 N       1.143040     1.611508    -1.366523 N          1 UNL1 0.000
    44 C       1.829895     1.567511    -2.529828 C          1 UNL1 0.000
    45 C       2.363427     0.394365    -3.035285 C          1 UNL1 0.000
    46 N       2.233069    -0.792208    -2.399755 N          1 UNL1 0.000
    47 C       1.543135    -0.747372    -1.232974 C          1 UNL1 0.000
    48 H       1.942899     2.512251    -3.049964 H          1 UNL1 0.000
    49 H       2.912915     0.378096    -3.968910 H          1 UNL1 0.000
    50 H       1.433854    -1.695738    -0.717235 H          1 UNL1 0.000
@<TRIPOS>BOND
     1      1      2   2
     2      2      3   1
     3      3      4   2
     4      4      5   1
     5      5      6   2
     6      6      1   1
     7      4      7   1
     8      7      8   1
     9      8      9   2
    10      9     10   1
    11     10     11   2
    12     11     12   1
    13     12     13   2
    14     13      8   1
    15     14     15   1
    16      1     14   1
    17     16     17   1
    18     11     16   1
    19     18     19   2
    20     19     20   1
    21     20     21   2
    22     21     22   1
    23     22     23   2
    24     23     18   1
    25      7     18   1
    26      2     24   1
    27      3     25   1
    28      5     26   1
    29      6     27   1
    30      9     28   1
    31     10     29   1
    32     12     30   1
    33     13     31   1
    34     15     32   1
    35     15     33   1
    36     15     34   1
    37     17     35   1
    38     17     36   1
    39     17     37   1
    40     19     38   1
    41     20     39   1
    42     21     40   1
    43     23     41   1
    44     42     43   2
    45     43     44   1
    46     44     45   2
    47     45     46   1
    48     46     47   2
    49     47     42   1
    50     44     48   1
    51     45     49   1
    52     47     50   1
    53     22     42   1
