# Produced with molli package
@<TRIPOS>MOLECULE
B_9_L
56 60 0 0 0
SMALL
USER_CHARGES

@<TRIPOS>ATOM
     1 C      -5.288096     4.293252     1.604690 C          1 UNL1 0.000
     2 C      -5.914742     3.155948     1.103466 C          1 UNL1 0.000
     3 C      -5.231415     1.929974     1.081252 C          1 UNL1 0.000
     4 C      -3.928638     1.806543     1.596178 C          1 UNL1 0.000
     5 C      -3.317455     2.985344     2.074721 C          1 UNL1 0.000
     6 C      -3.992135     4.209717     2.093672 C          1 UNL1 0.000
     7 N      -3.222285     0.543455     1.621235 N          1 UNL1 0.000
     8 C      -3.855508    -0.753802     1.756166 C          1 UNL1 0.000
     9 C      -5.103183    -0.932296     2.376341 C          1 UNL1 0.000
    10 C      -5.673304    -2.208724     2.532056 C          1 UNL1 0.000
    11 C      -4.991282    -3.343232     2.098896 C          1 UNL1 0.000
    12 C      -3.755708    -3.190642     1.479855 C          1 UNL1 0.000
    13 C      -3.196592    -1.919662     1.314230 C          1 UNL1 0.000
    14 O      -5.921124     5.499166     1.721338 O          1 UNL1 0.000
    15 C      -6.349207     6.008400     0.460835 C          1 UNL1 0.000
    16 O      -5.418609    -4.635917     2.213499 O          1 UNL1 0.000
    17 C      -6.464599    -4.876918     3.145550 C          1 UNL1 0.000
    18 C      -1.782126     0.573864     1.636594 C          1 UNL1 0.000
    19 C      -1.089630     0.451761     2.850932 C          1 UNL1 0.000
    20 C       0.302171     0.445403     2.865940 C          1 UNL1 0.000
    21 C       1.008540     0.518305     1.664541 C          1 UNL1 0.000
    22 C       0.337365     0.615898     0.434254 C          1 UNL1 0.000
    23 C      -1.063539     0.675139     0.434857 C          1 UNL1 0.000
    24 H      -6.939355     3.200303     0.747596 H          1 UNL1 0.000
    25 H      -5.737449     1.070486     0.649413 H          1 UNL1 0.000
    26 H      -2.305386     2.969165     2.469897 H          1 UNL1 0.000
    27 H      -3.501595     5.092599     2.493726 H          1 UNL1 0.000
    28 H      -5.646440    -0.083937     2.783319 H          1 UNL1 0.000
    29 H      -6.648720    -2.279473     3.002008 H          1 UNL1 0.000
    30 H      -3.209936    -4.065533     1.135304 H          1 UNL1 0.000
    31 H      -2.224947    -1.862760     0.830587 H          1 UNL1 0.000
    32 H      -5.522484     6.034053    -0.257788 H          1 UNL1 0.000
    33 H      -6.690650     7.036453     0.617566 H          1 UNL1 0.000
    34 H      -7.190940     5.433706     0.063161 H          1 UNL1 0.000
    35 H      -6.547702    -5.960040     3.279435 H          1 UNL1 0.000
    36 H      -7.420382    -4.511581     2.757845 H          1 UNL1 0.000
    37 H      -6.241138    -4.439247     4.124499 H          1 UNL1 0.000
    38 H      -1.643815     0.369435     3.782538 H          1 UNL1 0.000
    39 H       0.836538     0.365432     3.808514 H          1 UNL1 0.000
    40 H       2.096456     0.484609     1.686195 H          1 UNL1 0.000
    41 H      -1.607607     0.740269    -0.505122 H          1 UNL1 0.000
    42 C       1.090095     0.588668    -0.823340 C          1 UNL1 0.000
    43 C       1.253572     1.744956    -1.596505 C          1 UNL1 0.000
    44 C       1.989473     1.735235    -2.788931 C          1 UNL1 0.000
    45 C       2.556918     0.521248    -3.190965 C          1 UNL1 0.000
    46 C       2.409634    -0.655526    -2.458706 C          1 UNL1 0.000
    47 C       1.667786    -0.618719    -1.262875 C          1 UNL1 0.000
    48 N       3.323406     0.215842    -4.293150 N          1 UNL1 0.000
    49 C       3.659066    -1.112339    -4.284777 C          1 UNL1 0.000
    50 C       3.103351    -1.679157    -3.160515 C          1 UNL1 0.000
    51 H       0.809490     2.681753    -1.263604 H          1 UNL1 0.000
    52 H       2.113561     2.641981    -3.371638 H          1 UNL1 0.000
    53 H       1.542390    -1.528741    -0.681567 H          1 UNL1 0.000
    54 H       3.596858     0.881631    -5.002860 H          1 UNL1 0.000
    55 H       4.261632    -1.538317    -5.075339 H          1 UNL1 0.000
    56 H       3.187381    -2.717808    -2.869025 H          1 UNL1 0.000
@<TRIPOS>BOND
     1      1      2   2
     2      2      3   1
     3      3      4   2
     4      4      5   1
     5      5      6   2
     6      6      1   1
     7      4      7   1
     8      7      8   1
     9      8      9   2
    10      9     10   1
    11     10     11   2
    12     11     12   1
    13     12     13   2
    14     13      8   1
    15     14     15   1
    16      1     14   1
    17     16     17   1
    18     11     16   1
    19     18     19   2
    20     19     20   1
    21     20     21   2
    22     21     22   1
    23     22     23   2
    24     23     18   1
    25      7     18   1
    26      2     24   1
    27      3     25   1
    28      5     26   1
    29      6     27   1
    30      9     28   1
    31     10     29   1
    32     12     30   1
    33     13     31   1
    34     15     32   1
    35     15     33   1
    36     15     34   1
    37     17     35   1
    38     17     36   1
    39     17     37   1
    40     19     38   1
    41     20     39   1
    42     21     40   1
    43     23     41   1
    44     42     43   2
    45     43     44   1
    46     44     45   2
    47     45     46   1
    48     46     47   2
    49     47     42   1
    50     45     48   1
    51     48     49   1
    52     49     50   2
    53     50     46   1
    54     43     51   1
    55     44     52   1
    56     47     53   1
    57     48     54   1
    58     49     55   1
    59     50     56   1
    60     22     42   1
