# Produced with molli package
@<TRIPOS>MOLECULE
B_9_T
55 58 0 0 0
SMALL
USER_CHARGES

@<TRIPOS>ATOM
     1 C      -5.294884     4.224949     1.752086 C          1 UNL1 0.000
     2 C      -5.904835     3.104562     1.195107 C          1 UNL1 0.000
     3 C      -5.217065     1.883468     1.149197 C          1 UNL1 0.000
     4 C      -3.924912     1.748814     1.688546 C          1 UNL1 0.000
     5 C      -3.329563     2.907071     2.228329 C          1 UNL1 0.000
     6 C      -4.012021     4.126799     2.274957 C          1 UNL1 0.000
     7 N      -3.221860     0.486115     1.681529 N          1 UNL1 0.000
     8 C      -3.874348    -0.802501     1.772336 C          1 UNL1 0.000
     9 C      -5.091065    -0.983588     2.450717 C          1 UNL1 0.000
    10 C      -5.688082    -2.250428     2.562057 C          1 UNL1 0.000
    11 C      -5.066710    -3.371351     2.015804 C          1 UNL1 0.000
    12 C      -3.864158    -3.212499     1.334203 C          1 UNL1 0.000
    13 C      -3.273665    -1.950334     1.219608 C          1 UNL1 0.000
    14 O      -5.935270     5.424630     1.892969 O          1 UNL1 0.000
    15 C      -6.352843     5.966556     0.642364 C          1 UNL1 0.000
    16 O      -5.529665    -4.655931     2.070965 O          1 UNL1 0.000
    17 C      -6.523910    -4.927358     3.050456 C          1 UNL1 0.000
    18 C      -1.783127     0.500287     1.686447 C          1 UNL1 0.000
    19 C      -1.080475     0.290701     2.882224 C          1 UNL1 0.000
    20 C       0.311684     0.261257     2.881405 C          1 UNL1 0.000
    21 C       1.008210     0.398753     1.679539 C          1 UNL1 0.000
    22 C       0.326377     0.586159     0.466150 C          1 UNL1 0.000
    23 C      -1.073627     0.668251     0.487170 C          1 UNL1 0.000
    24 H      -6.920053     3.156506     0.814706 H          1 UNL1 0.000
    25 H      -5.708901     1.034383     0.681040 H          1 UNL1 0.000
    26 H      -2.329328     2.873571     2.651655 H          1 UNL1 0.000
    27 H      -3.538393     4.995800     2.723145 H          1 UNL1 0.000
    28 H      -5.583787    -0.143179     2.933091 H          1 UNL1 0.000
    29 H      -6.635661    -2.324900     3.084959 H          1 UNL1 0.000
    30 H      -3.369797    -4.077447     0.898866 H          1 UNL1 0.000
    31 H      -2.331100    -1.881679     0.683056 H          1 UNL1 0.000
    32 H      -5.509752     6.047805    -0.052581 H          1 UNL1 0.000
    33 H      -6.734149     6.975332     0.829103 H          1 UNL1 0.000
    34 H      -7.164285     5.380923     0.200010 H          1 UNL1 0.000
    35 H      -6.647471    -6.013304     3.107221 H          1 UNL1 0.000
    36 H      -7.485682    -4.494878     2.758146 H          1 UNL1 0.000
    37 H      -6.217252    -4.576756     4.041919 H          1 UNL1 0.000
    38 H      -1.626052     0.156996     3.812945 H          1 UNL1 0.000
    39 H       0.853598     0.112616     3.811380 H          1 UNL1 0.000
    40 H       2.095462     0.346161     1.687597 H          1 UNL1 0.000
    41 H      -1.625518     0.802003    -0.440982 H          1 UNL1 0.000
    42 C       1.059962     0.626632    -0.801651 C          1 UNL1 0.000
    43 C       1.214947     1.820007    -1.517793 C          1 UNL1 0.000
    44 C       1.918362     1.841146    -2.726974 C          1 UNL1 0.000
    45 C       2.476560     0.667283    -3.245136 C          1 UNL1 0.000
    46 C       2.317293    -0.529134    -2.539104 C          1 UNL1 0.000
    47 C       1.618849    -0.547318    -1.329823 C          1 UNL1 0.000
    48 C       3.228878     0.672602    -4.542452 C          1 UNL1 0.000
    49 H       0.791805     2.745235    -1.132475 H          1 UNL1 0.000
    50 H       2.026288     2.783533    -3.258875 H          1 UNL1 0.000
    51 H       2.734647    -1.455901    -2.926286 H          1 UNL1 0.000
    52 H       1.502805    -1.490938    -0.800033 H          1 UNL1 0.000
    53 H       2.711381     0.051066    -5.280240 H          1 UNL1 0.000
    54 H       4.241732     0.284619    -4.392506 H          1 UNL1 0.000
    55 H       3.315738     1.683814    -4.952757 H          1 UNL1 0.000
@<TRIPOS>BOND
     1      1      2   2
     2      2      3   1
     3      3      4   2
     4      4      5   1
     5      5      6   2
     6      6      1   1
     7      4      7   1
     8      7      8   1
     9      8      9   2
    10      9     10   1
    11     10     11   2
    12     11     12   1
    13     12     13   2
    14     13      8   1
    15     14     15   1
    16      1     14   1
    17     16     17   1
    18     11     16   1
    19     18     19   2
    20     19     20   1
    21     20     21   2
    22     21     22   1
    23     22     23   2
    24     23     18   1
    25      7     18   1
    26      2     24   1
    27      3     25   1
    28      5     26   1
    29      6     27   1
    30      9     28   1
    31     10     29   1
    32     12     30   1
    33     13     31   1
    34     15     32   1
    35     15     33   1
    36     15     34   1
    37     17     35   1
    38     17     36   1
    39     17     37   1
    40     19     38   1
    41     20     39   1
    42     21     40   1
    43     23     41   1
    44     42     43   2
    45     43     44   1
    46     44     45   2
    47     45     46   1
    48     46     47   2
    49     47     42   1
    50     45     48   1
    51     43     49   1
    52     44     50   1
    53     46     51   1
    54     47     52   1
    55     48     53   1
    56     48     54   1
    57     48     55   1
    58     22     42   1
