# Produced with molli package
@<TRIPOS>MOLECULE
B_9_R
53 56 0 0 0
SMALL
USER_CHARGES

@<TRIPOS>ATOM
     1 C      -5.301201     4.204573     1.991125 C          1 UNL1 0.000
     2 C      -5.848908     3.063954     2.567522 C          1 UNL1 0.000
     3 C      -5.172539     1.840036     2.480649 C          1 UNL1 0.000
     4 C      -3.940359     1.732418     1.811748 C          1 UNL1 0.000
     5 C      -3.388825     2.919416     1.283648 C          1 UNL1 0.000
     6 C      -4.056100     4.144652     1.377614 C          1 UNL1 0.000
     7 N      -3.225426     0.478136     1.705444 N          1 UNL1 0.000
     8 C      -3.864203    -0.820821     1.671930 C          1 UNL1 0.000
     9 C      -5.168965    -1.002838     1.175154 C          1 UNL1 0.000
    10 C      -5.785614    -2.261494     1.184559 C          1 UNL1 0.000
    11 C      -5.094270    -3.362575     1.674550 C          1 UNL1 0.000
    12 C      -3.781893    -3.233953     2.106916 C          1 UNL1 0.000
    13 C      -3.178177    -1.973981     2.111374 C          1 UNL1 0.000
    14 O      -5.980261     5.383874     2.125539 O          1 UNL1 0.000
    15 C      -6.390404     5.892464     0.855835 C          1 UNL1 0.000
    16 O      -5.674245    -4.598938     1.673254 O          1 UNL1 0.000
    17 C      -6.376772    -4.821155     2.897401 C          1 UNL1 0.000
    18 C      -1.787494     0.531160     1.706460 C          1 UNL1 0.000
    19 C      -1.092469     0.735727     2.907315 C          1 UNL1 0.000
    20 C       0.299284     0.784418     2.912436 C          1 UNL1 0.000
    21 C       1.003302     0.661081     1.713138 C          1 UNL1 0.000
    22 C       0.328448     0.479062     0.494570 C          1 UNL1 0.000
    23 C      -1.071644     0.395120     0.506696 C          1 UNL1 0.000
    24 H      -6.800491     3.123947     3.087951 H          1 UNL1 0.000
    25 H      -5.614590     0.976487     2.969875 H          1 UNL1 0.000
    26 H      -2.423606     2.909050     0.782863 H          1 UNL1 0.000
    27 H      -3.586695     5.040412     0.982453 H          1 UNL1 0.000
    28 H      -5.721927    -0.167093     0.754284 H          1 UNL1 0.000
    29 H      -6.795517    -2.376678     0.802382 H          1 UNL1 0.000
    30 H      -3.229720    -4.104441     2.448002 H          1 UNL1 0.000
    31 H      -2.158423    -1.909657     2.480915 H          1 UNL1 0.000
    32 H      -5.536505     6.134315     0.214497 H          1 UNL1 0.000
    33 H      -6.947301     6.818017     1.030348 H          1 UNL1 0.000
    34 H      -7.057974     5.184322     0.352400 H          1 UNL1 0.000
    35 H      -6.276352    -5.879701     3.156305 H          1 UNL1 0.000
    36 H      -7.438304    -4.600687     2.749411 H          1 UNL1 0.000
    37 H      -5.991046    -4.230465     3.737618 H          1 UNL1 0.000
    38 H      -1.643587     0.846807     3.837924 H          1 UNL1 0.000
    39 H       0.834321     0.936031     3.846099 H          1 UNL1 0.000
    40 H       2.089061     0.736122     1.726832 H          1 UNL1 0.000
    41 H      -1.617772     0.265894    -0.425614 H          1 UNL1 0.000
    42 C       1.069710     0.429728    -0.764033 C          1 UNL1 0.000
    43 N       1.149349     1.608833    -1.435527 N          1 UNL1 0.000
    44 C       1.860213     1.629419    -2.588433 C          1 UNL1 0.000
    45 C       2.484253     0.506656    -3.101288 C          1 UNL1 0.000
    46 C       2.391735    -0.705733    -2.419307 C          1 UNL1 0.000
    47 C       1.674418    -0.740719    -1.223407 C          1 UNL1 0.000
    48 N       3.228708     0.609503    -4.337914 N          1 UNL1 0.000
    49 O       3.220550    -0.374677    -5.089764 O          1 UNL1 0.000
    50 O       3.826345     1.671194    -4.557083 O          1 UNL1 0.000
    51 H       1.899505     2.596392    -3.083466 H          1 UNL1 0.000
    52 H       2.871693    -1.605732    -2.795087 H          1 UNL1 0.000
    53 H       1.590184    -1.664210    -0.657855 H          1 UNL1 0.000
@<TRIPOS>BOND
     1      1      2   2
     2      2      3   1
     3      3      4   2
     4      4      5   1
     5      5      6   2
     6      6      1   1
     7      4      7   1
     8      7      8   1
     9      8      9   2
    10      9     10   1
    11     10     11   2
    12     11     12   1
    13     12     13   2
    14     13      8   1
    15     14     15   1
    16      1     14   1
    17     16     17   1
    18     11     16   1
    19     18     19   2
    20     19     20   1
    21     20     21   2
    22     21     22   1
    23     22     23   2
    24     23     18   1
    25      7     18   1
    26      2     24   1
    27      3     25   1
    28      5     26   1
    29      6     27   1
    30      9     28   1
    31     10     29   1
    32     12     30   1
    33     13     31   1
    34     15     32   1
    35     15     33   1
    36     15     34   1
    37     17     35   1
    38     17     36   1
    39     17     37   1
    40     19     38   1
    41     20     39   1
    42     21     40   1
    43     23     41   1
    44     42     43   2
    45     43     44   1
    46     44     45   2
    47     45     46   1
    48     46     47   2
    49     47     42   1
    50     48     49   2
    51     48     50   1
    52     45     48   1
    53     44     51   1
    54     46     52   1
    55     47     53   1
    56     22     42   1
