# Produced with molli package
@<TRIPOS>MOLECULE
B_9_O
51 54 0 0 0
SMALL
USER_CHARGES

@<TRIPOS>ATOM
     1 C      -5.352539     4.188704     1.824274 C          1 UNL1 0.000
     2 C      -5.869899     3.063223     2.459463 C          1 UNL1 0.000
     3 C      -5.176665     1.846336     2.420311 C          1 UNL1 0.000
     4 C      -3.950951     1.728674     1.743950 C          1 UNL1 0.000
     5 C      -3.425095     2.897853     1.156665 C          1 UNL1 0.000
     6 C      -4.113296     4.115500     1.198351 C          1 UNL1 0.000
     7 N      -3.219228     0.482637     1.685616 N          1 UNL1 0.000
     8 C      -3.843679    -0.823003     1.675000 C          1 UNL1 0.000
     9 C      -5.142380    -1.028254     1.171350 C          1 UNL1 0.000
    10 C      -5.745958    -2.292820     1.200577 C          1 UNL1 0.000
    11 C      -5.047893    -3.377269     1.719147 C          1 UNL1 0.000
    12 C      -3.741026    -3.225141     2.160246 C          1 UNL1 0.000
    13 C      -3.150275    -1.958983     2.144985 C          1 UNL1 0.000
    14 O      -6.084487     5.340330     1.918167 O          1 UNL1 0.000
    15 C      -6.215353     6.024649     0.673276 C          1 UNL1 0.000
    16 O      -5.603189    -4.625769     1.744689 O          1 UNL1 0.000
    17 C      -6.480604    -4.751624     2.864573 C          1 UNL1 0.000
    18 C      -1.782394     0.555061     1.699056 C          1 UNL1 0.000
    19 C      -1.103360     0.816935     2.898219 C          1 UNL1 0.000
    20 C       0.287855     0.886077     2.915040 C          1 UNL1 0.000
    21 C       1.006036     0.725367     1.729095 C          1 UNL1 0.000
    22 C       0.347194     0.484866     0.511527 C          1 UNL1 0.000
    23 C      -1.051990     0.381597     0.513840 C          1 UNL1 0.000
    24 H      -6.818587     3.129030     2.985176 H          1 UNL1 0.000
    25 H      -5.600542     0.997052     2.948987 H          1 UNL1 0.000
    26 H      -2.464575     2.877941     0.646464 H          1 UNL1 0.000
    27 H      -3.651117     4.991174     0.754434 H          1 UNL1 0.000
    28 H      -5.699119    -0.206652     0.728136 H          1 UNL1 0.000
    29 H      -6.749440    -2.424846     0.807221 H          1 UNL1 0.000
    30 H      -3.183739    -4.082255     2.525982 H          1 UNL1 0.000
    31 H      -2.134776    -1.875265     2.522697 H          1 UNL1 0.000
    32 H      -5.272568     6.486556     0.364612 H          1 UNL1 0.000
    33 H      -6.946107     6.827644     0.809613 H          1 UNL1 0.000
    34 H      -6.593340     5.354374    -0.107038 H          1 UNL1 0.000
    35 H      -6.628966    -5.818867     3.055594 H          1 UNL1 0.000
    36 H      -7.453602    -4.305520     2.635626 H          1 UNL1 0.000
    37 H      -6.061780    -4.303870     3.774007 H          1 UNL1 0.000
    38 H      -1.665629     0.956463     3.817755 H          1 UNL1 0.000
    39 H       0.811028     1.082036     3.847193 H          1 UNL1 0.000
    40 H       2.090683     0.815369     1.747853 H          1 UNL1 0.000
    41 H      -1.583554     0.206992    -0.419629 H          1 UNL1 0.000
    42 C       1.100451     0.390577    -0.736694 C          1 UNL1 0.000
    43 N       1.167494     1.535365    -1.462227 N          1 UNL1 0.000
    44 C       1.874833     1.500845    -2.610368 C          1 UNL1 0.000
    45 C       2.523948     0.372706    -3.083045 C          1 UNL1 0.000
    46 C       2.440429    -0.794237    -2.330966 C          1 UNL1 0.000
    47 C       1.720659    -0.788627    -1.140127 C          1 UNL1 0.000
    48 H       1.909488     2.437958    -3.159469 H          1 UNL1 0.000
    49 H       3.079358     0.403050    -4.012523 H          1 UNL1 0.000
    50 H       2.933868    -1.700788    -2.669739 H          1 UNL1 0.000
    51 H       1.643891    -1.688247    -0.537263 H          1 UNL1 0.000
@<TRIPOS>BOND
     1      1      2   2
     2      2      3   1
     3      3      4   2
     4      4      5   1
     5      5      6   2
     6      6      1   1
     7      4      7   1
     8      7      8   1
     9      8      9   2
    10      9     10   1
    11     10     11   2
    12     11     12   1
    13     12     13   2
    14     13      8   1
    15     14     15   1
    16      1     14   1
    17     16     17   1
    18     11     16   1
    19     18     19   2
    20     19     20   1
    21     20     21   2
    22     21     22   1
    23     22     23   2
    24     23     18   1
    25      7     18   1
    26      2     24   1
    27      3     25   1
    28      5     26   1
    29      6     27   1
    30      9     28   1
    31     10     29   1
    32     12     30   1
    33     13     31   1
    34     15     32   1
    35     15     33   1
    36     15     34   1
    37     17     35   1
    38     17     36   1
    39     17     37   1
    40     19     38   1
    41     20     39   1
    42     21     40   1
    43     23     41   1
    44     42     43   2
    45     43     44   1
    46     44     45   2
    47     45     46   1
    48     46     47   2
    49     47     42   1
    50     44     48   1
    51     45     49   1
    52     46     50   1
    53     47     51   1
    54     22     42   1
