# Produced with molli package
@<TRIPOS>MOLECULE
B_9_S
57 60 0 0 0
SMALL
USER_CHARGES

@<TRIPOS>ATOM
     1 C      -5.231699     4.330645     1.659538 C          1 UNL1 0.000
     2 C      -5.938519     3.193081     1.281547 C          1 UNL1 0.000
     3 C      -5.307656     1.935054     1.271310 C          1 UNL1 0.000
     4 C      -3.979735     1.772616     1.697907 C          1 UNL1 0.000
     5 C      -3.288952     2.957618     2.048057 C          1 UNL1 0.000
     6 C      -3.903645     4.214093     2.037694 C          1 UNL1 0.000
     7 N      -3.305093     0.487269     1.756638 N          1 UNL1 0.000
     8 C      -3.936305    -0.819792     1.851629 C          1 UNL1 0.000
     9 C      -5.243589    -1.026271     2.320515 C          1 UNL1 0.000
    10 C      -5.815308    -2.312998     2.380382 C          1 UNL1 0.000
    11 C      -5.069651    -3.433262     2.023896 C          1 UNL1 0.000
    12 C      -3.765084    -3.265445     1.586367 C          1 UNL1 0.000
    13 C      -3.210009    -1.984852     1.507975 C          1 UNL1 0.000
    14 O      -5.796659     5.569918     1.769357 O          1 UNL1 0.000
    15 C      -6.413368     6.012836     0.564090 C          1 UNL1 0.000
    16 O      -5.529477    -4.719545     2.024172 O          1 UNL1 0.000
    17 C      -6.371426    -5.048162     3.123102 C          1 UNL1 0.000
    18 C      -1.862166     0.506598     1.754370 C          1 UNL1 0.000
    19 C      -1.156314     0.422275     2.964027 C          1 UNL1 0.000
    20 C       0.235418     0.417443     2.960256 C          1 UNL1 0.000
    21 C       0.926458     0.462107     1.747866 C          1 UNL1 0.000
    22 C       0.239634     0.527359     0.524234 C          1 UNL1 0.000
    23 C      -1.159987     0.574532     0.539817 C          1 UNL1 0.000
    24 H      -6.988329     3.258422     1.012968 H          1 UNL1 0.000
    25 H      -5.886390     1.091661     0.908668 H          1 UNL1 0.000
    26 H      -2.247268     2.930065     2.356697 H          1 UNL1 0.000
    27 H      -3.339064     5.095017     2.330703 H          1 UNL1 0.000
    28 H      -5.849216    -0.198815     2.675772 H          1 UNL1 0.000
    29 H      -6.848673    -2.409002     2.698473 H          1 UNL1 0.000
    30 H      -3.166509    -4.130503     1.313454 H          1 UNL1 0.000
    31 H      -2.180814    -1.925386     1.164920 H          1 UNL1 0.000
    32 H      -5.692857     6.028281    -0.260768 H          1 UNL1 0.000
    33 H      -6.760165     7.038184     0.727813 H          1 UNL1 0.000
    34 H      -7.286070     5.406013     0.306599 H          1 UNL1 0.000
    35 H      -6.455169    -6.139008     3.160676 H          1 UNL1 0.000
    36 H      -7.376388    -4.640234     2.982362 H          1 UNL1 0.000
    37 H      -5.939625    -4.713846     4.072844 H          1 UNL1 0.000
    38 H      -1.699813     0.372137     3.904254 H          1 UNL1 0.000
    39 H       0.781867     0.368667     3.898193 H          1 UNL1 0.000
    40 H       2.014706     0.439397     1.758121 H          1 UNL1 0.000
    41 H      -1.717940     0.620430    -0.393264 H          1 UNL1 0.000
    42 C       0.977107     0.506972    -0.739537 C          1 UNL1 0.000
    43 C       1.248739     1.690445    -1.435792 C          1 UNL1 0.000
    44 C       1.995864     1.664220    -2.617661 C          1 UNL1 0.000
    45 C       2.481179     0.452155    -3.126444 C          1 UNL1 0.000
    46 C       2.186796    -0.737705    -2.453858 C          1 UNL1 0.000
    47 C       1.444045    -0.706370    -1.268380 C          1 UNL1 0.000
    48 C       3.305708     0.484394    -4.371866 C          1 UNL1 0.000
    49 C       3.966625    -0.784182    -4.848328 C          1 UNL1 0.000
    50 O       3.428656     1.533607    -4.996428 O          1 UNL1 0.000
    51 H       0.890791     2.644505    -1.053350 H          1 UNL1 0.000
    52 H       2.205284     2.599531    -3.133997 H          1 UNL1 0.000
    53 H       2.521182    -1.702392    -2.823383 H          1 UNL1 0.000
    54 H       1.230812    -1.640325    -0.750186 H          1 UNL1 0.000
    55 H       3.234238    -1.414315    -5.358588 H          1 UNL1 0.000
    56 H       4.432283    -1.323409    -4.019745 H          1 UNL1 0.000
    57 H       4.764867    -0.525936    -5.551429 H          1 UNL1 0.000
@<TRIPOS>BOND
     1      1      2   2
     2      2      3   1
     3      3      4   2
     4      4      5   1
     5      5      6   2
     6      6      1   1
     7      4      7   1
     8      7      8   1
     9      8      9   2
    10      9     10   1
    11     10     11   2
    12     11     12   1
    13     12     13   2
    14     13      8   1
    15     14     15   1
    16      1     14   1
    17     16     17   1
    18     11     16   1
    19     18     19   2
    20     19     20   1
    21     20     21   2
    22     21     22   1
    23     22     23   2
    24     23     18   1
    25      7     18   1
    26      2     24   1
    27      3     25   1
    28      5     26   1
    29      6     27   1
    30      9     28   1
    31     10     29   1
    32     12     30   1
    33     13     31   1
    34     15     32   1
    35     15     33   1
    36     15     34   1
    37     17     35   1
    38     17     36   1
    39     17     37   1
    40     19     38   1
    41     20     39   1
    42     21     40   1
    43     23     41   1
    44     42     43   2
    45     43     44   1
    46     44     45   2
    47     45     46   1
    48     46     47   2
    49     47     42   1
    50     45     48   1
    51     48     49   1
    52     48     50   2
    53     43     51   1
    54     44     52   1
    55     46     53   1
    56     47     54   1
    57     49     55   1
    58     49     56   1
    59     49     57   1
    60     22     42   1
