# Produced with molli package
@<TRIPOS>MOLECULE
C_10_L
54 58 0 0 0
SMALL
USER_CHARGES

@<TRIPOS>ATOM
     1 C      -5.205510     4.337256     1.838173 C          1 UNL1 0.000
     2 C      -5.814735     3.183813     2.338809 C          1 UNL1 0.000
     3 C      -5.155233     1.948330     2.289326 C          1 UNL1 0.000
     4 C      -3.879740     1.820311     1.714206 C          1 UNL1 0.000
     5 C      -3.273777     2.999180     1.236938 C          1 UNL1 0.000
     6 C      -3.924052     4.237299     1.296268 C          1 UNL1 0.000
     7 N      -3.192202     0.547861     1.640873 N          1 UNL1 0.000
     8 C      -3.875418    -0.725554     1.606411 C          1 UNL1 0.000
     9 C      -5.118324    -0.882134     0.969662 C          1 UNL1 0.000
    10 C      -5.800215    -2.106192     0.987782 C          1 UNL1 0.000
    11 C      -5.245173    -3.218370     1.624699 C          1 UNL1 0.000
    12 C      -3.985545    -3.095335     2.214497 C          1 UNL1 0.000
    13 C      -3.310753    -1.869329     2.200758 C          1 UNL1 0.000
    14 C      -5.921825     5.653444     1.889215 C          1 UNL1 0.000
    15 C      -5.971844    -4.528934     1.678908 C          1 UNL1 0.000
    16 C      -1.754699     0.552289     1.659310 C          1 UNL1 0.000
    17 C      -1.065006     0.748581     2.861501 C          1 UNL1 0.000
    18 C       0.322364     0.772154     2.857551 C          1 UNL1 0.000
    19 C       1.041734     0.642428     1.673935 C          1 UNL1 0.000
    20 C       0.370956     0.475547     0.454628 C          1 UNL1 0.000
    21 C      -1.031204     0.403007     0.462980 C          1 UNL1 0.000
    22 F       0.981232     0.939909     4.011816 F          1 UNL1 0.000
    23 H      -6.808204     3.236677     2.778809 H          1 UNL1 0.000
    24 H      -5.653764     1.087672     2.727568 H          1 UNL1 0.000
    25 H      -2.282584     2.973713     0.792418 H          1 UNL1 0.000
    26 H      -3.416407     5.118222     0.910080 H          1 UNL1 0.000
    27 H      -5.573471    -0.047924     0.441286 H          1 UNL1 0.000
    28 H      -6.770185    -2.177238     0.500923 H          1 UNL1 0.000
    29 H      -3.521386    -3.950050     2.701788 H          1 UNL1 0.000
    30 H      -2.343334    -1.820221     2.692689 H          1 UNL1 0.000
    31 H      -5.309765     6.460085     1.471843 H          1 UNL1 0.000
    32 H      -6.159912     5.915045     2.925007 H          1 UNL1 0.000
    33 H      -6.847793     5.601051     1.307574 H          1 UNL1 0.000
    34 H      -5.405882    -5.298355     1.144522 H          1 UNL1 0.000
    35 H      -6.964283    -4.458010     1.222114 H          1 UNL1 0.000
    36 H      -6.107040    -4.840596     2.720169 H          1 UNL1 0.000
    37 H      -1.604375     0.872052     3.794939 H          1 UNL1 0.000
    38 H       2.126574     0.695944     1.707913 H          1 UNL1 0.000
    39 H      -1.574124     0.272067    -0.471781 H          1 UNL1 0.000
    40 C       1.118881     0.443554    -0.804774 C          1 UNL1 0.000
    41 C       1.246863     1.611994    -1.571350 C          1 UNL1 0.000
    42 C       1.977139     1.638279    -2.764744 C          1 UNL1 0.000
    43 C       2.580980     0.446458    -3.174209 C          1 UNL1 0.000
    44 C       2.475417    -0.739482    -2.448529 C          1 UNL1 0.000
    45 C       1.734584    -0.739744    -1.248753 C          1 UNL1 0.000
    46 N       3.352982     0.177638    -4.282177 N          1 UNL1 0.000
    47 C       3.735905    -1.137430    -4.283414 C          1 UNL1 0.000
    48 C       3.205728    -1.730965    -3.160706 C          1 UNL1 0.000
    49 H       0.775851     2.533144    -1.230601 H          1 UNL1 0.000
    50 H       2.070254     2.553233    -3.340180 H          1 UNL1 0.000
    51 H       1.645804    -1.655761    -0.671038 H          1 UNL1 0.000
    52 H       3.598717     0.857874    -4.987622 H          1 UNL1 0.000
    53 H       4.350404    -1.535149    -5.079810 H          1 UNL1 0.000
    54 H       3.329992    -2.767770    -2.877286 H          1 UNL1 0.000
@<TRIPOS>BOND
     1      1      2   2
     2      2      3   1
     3      3      4   2
     4      4      5   1
     5      5      6   2
     6      6      1   1
     7      4      7   1
     8      7      8   1
     9      8      9   2
    10      9     10   1
    11     10     11   2
    12     11     12   1
    13     12     13   2
    14     13      8   1
    15      1     14   1
    16     11     15   1
    17     16     17   2
    18     17     18   1
    19     18     19   2
    20     19     20   1
    21     20     21   2
    22     21     16   1
    23     18     22   1
    24      7     16   1
    25      2     23   1
    26      3     24   1
    27      5     25   1
    28      6     26   1
    29      9     27   1
    30     10     28   1
    31     12     29   1
    32     13     30   1
    33     14     31   1
    34     14     32   1
    35     14     33   1
    36     15     34   1
    37     15     35   1
    38     15     36   1
    39     17     37   1
    40     19     38   1
    41     21     39   1
    42     40     41   2
    43     41     42   1
    44     42     43   2
    45     43     44   1
    46     44     45   2
    47     45     40   1
    48     43     46   1
    49     46     47   1
    50     47     48   2
    51     48     44   1
    52     41     49   1
    53     42     50   1
    54     45     51   1
    55     46     52   1
    56     47     53   1
    57     48     54   1
    58     20     40   1
