# Produced with molli package
@<TRIPOS>MOLECULE
C_10_O
49 52 0 0 0
SMALL
USER_CHARGES

@<TRIPOS>ATOM
     1 C      -5.313478     4.280879     1.666531 C          1 UNL1 0.000
     2 C      -5.884966     3.144423     1.090492 C          1 UNL1 0.000
     3 C      -5.197939     1.922977     1.092106 C          1 UNL1 0.000
     4 C      -3.933447     1.792143     1.691218 C          1 UNL1 0.000
     5 C      -3.356254     2.958619     2.227271 C          1 UNL1 0.000
     6 C      -4.035152     4.182516     2.219063 C          1 UNL1 0.000
     7 N      -3.238537     0.525132     1.742394 N          1 UNL1 0.000
     8 C      -3.911940    -0.755286     1.811256 C          1 UNL1 0.000
     9 C      -5.174645    -0.904437     2.408504 C          1 UNL1 0.000
    10 C      -5.825162    -2.145477     2.443197 C          1 UNL1 0.000
    11 C      -5.220422    -3.282607     1.901131 C          1 UNL1 0.000
    12 C      -3.944266    -3.164760     1.350463 C          1 UNL1 0.000
    13 C      -3.303745    -1.921080     1.305283 C          1 UNL1 0.000
    14 C      -6.041306     5.591452     1.692890 C          1 UNL1 0.000
    15 C      -5.920311    -4.607916     1.945220 C          1 UNL1 0.000
    16 C      -1.800785     0.531984     1.753307 C          1 UNL1 0.000
    17 C      -1.104742     0.331820     2.951042 C          1 UNL1 0.000
    18 C       0.282031     0.301785     2.937887 C          1 UNL1 0.000
    19 C       0.994291     0.419926     1.748971 C          1 UNL1 0.000
    20 C       0.318376     0.595129     0.532258 C          1 UNL1 0.000
    21 C      -1.083409     0.688821     0.554446 C          1 UNL1 0.000
    22 F       0.948705     0.136643     4.088164 F          1 UNL1 0.000
    23 H      -6.870476     3.194750     0.633293 H          1 UNL1 0.000
    24 H      -5.666834     1.071883     0.604694 H          1 UNL1 0.000
    25 H      -2.370928     2.932267     2.684581 H          1 UNL1 0.000
    26 H      -3.556753     5.056032     2.656643 H          1 UNL1 0.000
    27 H      -5.669458    -0.055558     2.873363 H          1 UNL1 0.000
    28 H      -6.809237    -2.214942     2.901590 H          1 UNL1 0.000
    29 H      -3.435486    -4.035184     0.942566 H          1 UNL1 0.000
    30 H      -2.319933    -1.879865     0.846192 H          1 UNL1 0.000
    31 H      -5.488290     6.343265     1.121088 H          1 UNL1 0.000
    32 H      -6.154815     5.937390     2.725796 H          1 UNL1 0.000
    33 H      -7.042780     5.504377     1.259189 H          1 UNL1 0.000
    34 H      -5.403397    -5.353179     1.331085 H          1 UNL1 0.000
    35 H      -6.939212    -4.512674     1.555750 H          1 UNL1 0.000
    36 H      -5.960149    -4.979662     2.973605 H          1 UNL1 0.000
    37 H      -1.639025     0.212404     3.887866 H          1 UNL1 0.000
    38 H       2.079402     0.373896     1.780150 H          1 UNL1 0.000
    39 H      -1.628787     0.834673    -0.377127 H          1 UNL1 0.000
    40 C       1.049605     0.624122    -0.735962 C          1 UNL1 0.000
    41 N       1.010397     1.790464    -1.421792 N          1 UNL1 0.000
    42 C       1.678823     1.839484    -2.595774 C          1 UNL1 0.000
    43 C       2.378860     0.771791    -3.133434 C          1 UNL1 0.000
    44 C       2.399204    -0.422182    -2.424796 C          1 UNL1 0.000
    45 C       1.729577    -0.499251    -1.207210 C          1 UNL1 0.000
    46 H       1.635028     2.794519    -3.111607 H          1 UNL1 0.000
    47 H       2.893503     0.868288    -4.082752 H          1 UNL1 0.000
    48 H       2.928520    -1.286560    -2.815326 H          1 UNL1 0.000
    49 H       1.726946    -1.426569    -0.642910 H          1 UNL1 0.000
@<TRIPOS>BOND
     1      1      2   2
     2      2      3   1
     3      3      4   2
     4      4      5   1
     5      5      6   2
     6      6      1   1
     7      4      7   1
     8      7      8   1
     9      8      9   2
    10      9     10   1
    11     10     11   2
    12     11     12   1
    13     12     13   2
    14     13      8   1
    15      1     14   1
    16     11     15   1
    17     16     17   2
    18     17     18   1
    19     18     19   2
    20     19     20   1
    21     20     21   2
    22     21     16   1
    23     18     22   1
    24      7     16   1
    25      2     23   1
    26      3     24   1
    27      5     25   1
    28      6     26   1
    29      9     27   1
    30     10     28   1
    31     12     29   1
    32     13     30   1
    33     14     31   1
    34     14     32   1
    35     14     33   1
    36     15     34   1
    37     15     35   1
    38     15     36   1
    39     17     37   1
    40     19     38   1
    41     21     39   1
    42     40     41   2
    43     41     42   1
    44     42     43   2
    45     43     44   1
    46     44     45   2
    47     45     40   1
    48     42     46   1
    49     43     47   1
    50     44     48   1
    51     45     49   1
    52     20     40   1
