# Produced with molli package
@<TRIPOS>MOLECULE
C_10_K
52 55 0 0 0
SMALL
USER_CHARGES

@<TRIPOS>ATOM
     1 C      -5.182996     4.331093     1.807413 C          1 UNL1 0.000
     2 C      -5.775602     3.215329     2.404809 C          1 UNL1 0.000
     3 C      -5.135290     1.968447     2.384718 C          1 UNL1 0.000
     4 C      -3.898329     1.790516     1.743559 C          1 UNL1 0.000
     5 C      -3.304420     2.934363     1.174356 C          1 UNL1 0.000
     6 C      -3.934932     4.183578     1.202717 C          1 UNL1 0.000
     7 N      -3.232356     0.505627     1.695375 N          1 UNL1 0.000
     8 C      -3.928829    -0.763824     1.688550 C          1 UNL1 0.000
     9 C      -5.225523    -0.901316     1.164516 C          1 UNL1 0.000
    10 C      -5.905719    -2.127082     1.200121 C          1 UNL1 0.000
    11 C      -5.292801    -3.265552     1.727451 C          1 UNL1 0.000
    12 C      -3.989297    -3.159751     2.213546 C          1 UNL1 0.000
    13 C      -3.318837    -1.931293     2.188172 C          1 UNL1 0.000
    14 C      -5.879488     5.658982     1.824184 C          1 UNL1 0.000
    15 C      -6.020714    -4.573749     1.812310 C          1 UNL1 0.000
    16 C      -1.794558     0.496669     1.705087 C          1 UNL1 0.000
    17 C      -1.097529     0.634108     2.910922 C          1 UNL1 0.000
    18 C       0.289620     0.618554     2.902593 C          1 UNL1 0.000
    19 C       1.002250     0.508289     1.712438 C          1 UNL1 0.000
    20 C       0.324675     0.403493     0.489815 C          1 UNL1 0.000
    21 C      -1.078663     0.370272     0.501446 C          1 UNL1 0.000
    22 F       0.956703     0.722391     4.059452 F          1 UNL1 0.000
    23 H      -6.741195     3.307487     2.897438 H          1 UNL1 0.000
    24 H      -5.616320     1.139411     2.897384 H          1 UNL1 0.000
    25 H      -2.340243     2.871857     0.678313 H          1 UNL1 0.000
    26 H      -3.439428     5.035319     0.742278 H          1 UNL1 0.000
    27 H      -5.730009    -0.053661     0.707861 H          1 UNL1 0.000
    28 H      -6.919157    -2.179785     0.808434 H          1 UNL1 0.000
    29 H      -3.484085    -4.030479     2.625988 H          1 UNL1 0.000
    30 H      -2.311062    -1.905809     2.592781 H          1 UNL1 0.000
    31 H      -5.287177     6.429265     1.318652 H          1 UNL1 0.000
    32 H      -6.045918     5.986699     2.855064 H          1 UNL1 0.000
    33 H      -6.842010     5.586132     1.307709 H          1 UNL1 0.000
    34 H      -5.392491    -5.386250     1.432557 H          1 UNL1 0.000
    35 H      -6.939627    -4.560757     1.217504 H          1 UNL1 0.000
    36 H      -6.288024    -4.785313     2.852782 H          1 UNL1 0.000
    37 H      -1.631375     0.735043     3.850374 H          1 UNL1 0.000
    38 H       2.088168     0.528547     1.748523 H          1 UNL1 0.000
    39 H      -1.630902     0.279650    -0.432743 H          1 UNL1 0.000
    40 C       1.067093     0.386358    -0.772994 C          1 UNL1 0.000
    41 C       1.126107     1.546975    -1.569625 C          1 UNL1 0.000
    42 C       1.854119     1.563568    -2.759996 C          1 UNL1 0.000
    43 C       2.525051     0.403682    -3.144499 C          1 UNL1 0.000
    44 C       2.484941    -0.765800    -2.384352 C          1 UNL1 0.000
    45 C       1.749851    -0.767657    -1.196468 C          1 UNL1 0.000
    46 N       3.297722     0.418651    -4.366766 N          1 UNL1 0.000
    47 O       4.526815     0.500676    -4.251689 O          1 UNL1 0.000
    48 O       2.667205     0.352122    -5.429849 O          1 UNL1 0.000
    49 H       0.609886     2.451821    -1.250427 H          1 UNL1 0.000
    50 H       1.899608     2.467996    -3.361476 H          1 UNL1 0.000
    51 H       3.012681    -1.661497    -2.702172 H          1 UNL1 0.000
    52 H       1.709359    -1.675186    -0.595641 H          1 UNL1 0.000
@<TRIPOS>BOND
     1      1      2   2
     2      2      3   1
     3      3      4   2
     4      4      5   1
     5      5      6   2
     6      6      1   1
     7      4      7   1
     8      7      8   1
     9      8      9   2
    10      9     10   1
    11     10     11   2
    12     11     12   1
    13     12     13   2
    14     13      8   1
    15      1     14   1
    16     11     15   1
    17     16     17   2
    18     17     18   1
    19     18     19   2
    20     19     20   1
    21     20     21   2
    22     21     16   1
    23     18     22   1
    24      7     16   1
    25      2     23   1
    26      3     24   1
    27      5     25   1
    28      6     26   1
    29      9     27   1
    30     10     28   1
    31     12     29   1
    32     13     30   1
    33     14     31   1
    34     14     32   1
    35     14     33   1
    36     15     34   1
    37     15     35   1
    38     15     36   1
    39     17     37   1
    40     19     38   1
    41     21     39   1
    42     40     41   2
    43     41     42   1
    44     42     43   2
    45     43     44   1
    46     44     45   2
    47     45     40   1
    48     46     47   2
    49     46     48   1
    50     43     46   1
    51     41     49   1
    52     42     50   1
    53     44     51   1
    54     45     52   1
    55     20     40   1
