# Produced with molli package
@<TRIPOS>MOLECULE
C_10_S
55 58 0 0 0
SMALL
USER_CHARGES

@<TRIPOS>ATOM
     1 C      -5.246760     4.324332     1.551464 C          1 UNL1 0.000
     2 C      -5.855146     3.170064     1.055186 C          1 UNL1 0.000
     3 C      -5.171771     1.944982     1.056762 C          1 UNL1 0.000
     4 C      -3.875749     1.824095     1.586076 C          1 UNL1 0.000
     5 C      -3.260944     3.013298     2.026667 C          1 UNL1 0.000
     6 C      -3.931874     4.241937     2.009516 C          1 UNL1 0.000
     7 N      -3.181347     0.553743     1.656757 N          1 UNL1 0.000
     8 C      -3.842915    -0.733234     1.765431 C          1 UNL1 0.000
     9 C      -5.124906    -0.880664     2.320636 C          1 UNL1 0.000
    10 C      -5.767396    -2.126873     2.366568 C          1 UNL1 0.000
    11 C      -5.130819    -3.275560     1.891083 C          1 UNL1 0.000
    12 C      -3.828144    -3.164408     1.407436 C          1 UNL1 0.000
    13 C      -3.199636    -1.914807     1.342906 C          1 UNL1 0.000
    14 C      -5.965606     5.640018     1.568810 C          1 UNL1 0.000
    15 C      -5.824655    -4.604038     1.935343 C          1 UNL1 0.000
    16 C      -1.741746     0.568420     1.670086 C          1 UNL1 0.000
    17 C      -1.051008     0.491490     2.885410 C          1 UNL1 0.000
    18 C       0.335650     0.491775     2.882611 C          1 UNL1 0.000
    19 C       1.053070     0.526846     1.691294 C          1 UNL1 0.000
    20 C       0.383615     0.578449     0.459905 C          1 UNL1 0.000
    21 C      -1.019837     0.628858     0.463181 C          1 UNL1 0.000
    22 F       0.997615     0.446893     4.046158 F          1 UNL1 0.000
    23 H      -6.869055     3.208315     0.663012 H          1 UNL1 0.000
    24 H      -5.676096     1.084512     0.625045 H          1 UNL1 0.000
    25 H      -2.246923     3.007744     2.416210 H          1 UNL1 0.000
    26 H      -3.418740     5.130713     2.370494 H          1 UNL1 0.000
    27 H      -5.648783    -0.027659     2.743289 H          1 UNL1 0.000
    28 H      -6.771891    -2.190058     2.779702 H          1 UNL1 0.000
    29 H      -3.289094    -4.044402     1.063897 H          1 UNL1 0.000
    30 H      -2.193039    -1.886953     0.935506 H          1 UNL1 0.000
    31 H      -5.540164     6.313315     0.818396 H          1 UNL1 0.000
    32 H      -5.879554     6.104743     2.557131 H          1 UNL1 0.000
    33 H      -7.032665     5.516510     1.357167 H          1 UNL1 0.000
    34 H      -5.281804    -5.356723     1.353257 H          1 UNL1 0.000
    35 H      -6.828727    -4.522556     1.505911 H          1 UNL1 0.000
    36 H      -5.901136    -4.957612     2.967874 H          1 UNL1 0.000
    37 H      -1.589767     0.446467     3.826336 H          1 UNL1 0.000
    38 H       2.138902     0.507899     1.733119 H          1 UNL1 0.000
    39 H      -1.567600     0.667809    -0.477131 H          1 UNL1 0.000
    40 C       1.140784     0.533069    -0.794588 C          1 UNL1 0.000
    41 C       1.275461     1.666100    -1.605843 C          1 UNL1 0.000
    42 C       2.031042     1.613978    -2.783001 C          1 UNL1 0.000
    43 C       2.658838     0.424487    -3.177062 C          1 UNL1 0.000
    44 C       2.526718    -0.712578    -2.375354 C          1 UNL1 0.000
    45 C       1.772074    -0.655370    -1.197500 C          1 UNL1 0.000
    46 C       3.461199     0.427891    -4.436969 C          1 UNL1 0.000
    47 C       3.968928    -0.875758    -4.998231 C          1 UNL1 0.000
    48 O       3.718742     1.494467    -4.991351 O          1 UNL1 0.000
    49 H       0.805721     2.605309    -1.319374 H          1 UNL1 0.000
    50 H       2.131412     2.512742    -3.389686 H          1 UNL1 0.000
    51 H       3.007426    -1.652191    -2.630276 H          1 UNL1 0.000
    52 H       1.679657    -1.552162    -0.586128 H          1 UNL1 0.000
    53 H       4.113990    -0.762440    -6.077391 H          1 UNL1 0.000
    54 H       3.246932    -1.683628    -4.859833 H          1 UNL1 0.000
    55 H       4.924174    -1.130423    -4.532588 H          1 UNL1 0.000
@<TRIPOS>BOND
     1      1      2   2
     2      2      3   1
     3      3      4   2
     4      4      5   1
     5      5      6   2
     6      6      1   1
     7      4      7   1
     8      7      8   1
     9      8      9   2
    10      9     10   1
    11     10     11   2
    12     11     12   1
    13     12     13   2
    14     13      8   1
    15      1     14   1
    16     11     15   1
    17     16     17   2
    18     17     18   1
    19     18     19   2
    20     19     20   1
    21     20     21   2
    22     21     16   1
    23     18     22   1
    24      7     16   1
    25      2     23   1
    26      3     24   1
    27      5     25   1
    28      6     26   1
    29      9     27   1
    30     10     28   1
    31     12     29   1
    32     13     30   1
    33     14     31   1
    34     14     32   1
    35     14     33   1
    36     15     34   1
    37     15     35   1
    38     15     36   1
    39     17     37   1
    40     19     38   1
    41     21     39   1
    42     40     41   2
    43     41     42   1
    44     42     43   2
    45     43     44   1
    46     44     45   2
    47     45     40   1
    48     43     46   1
    49     46     47   1
    50     46     48   2
    51     41     49   1
    52     42     50   1
    53     44     51   1
    54     45     52   1
    55     47     53   1
    56     47     54   1
    57     47     55   1
    58     20     40   1
