# Produced with molli package
@<TRIPOS>MOLECULE
C_10_N
47 50 0 0 0
SMALL
USER_CHARGES

@<TRIPOS>ATOM
     1 C      -5.315421     4.364764     1.892417 C          1 UNL1 0.000
     2 C      -5.880783     3.227716     2.476908 C          1 UNL1 0.000
     3 C      -5.214413     1.996675     2.433059 C          1 UNL1 0.000
     4 C      -3.971347     1.862709     1.792770 C          1 UNL1 0.000
     5 C      -3.406363     3.023160     1.230906 C          1 UNL1 0.000
     6 C      -4.067954     4.254982     1.276518 C          1 UNL1 0.000
     7 N      -3.279823     0.594507     1.734380 N          1 UNL1 0.000
     8 C      -3.968323    -0.671849     1.665496 C          1 UNL1 0.000
     9 C      -5.193704    -0.806953     0.990911 C          1 UNL1 0.000
    10 C      -5.873134    -2.030663     0.951637 C          1 UNL1 0.000
    11 C      -5.341305    -3.157622     1.582818 C          1 UNL1 0.000
    12 C      -4.103051    -3.050340     2.220732 C          1 UNL1 0.000
    13 C      -3.426271    -1.825912     2.258629 C          1 UNL1 0.000
    14 C      -6.037504     5.677966     1.941972 C          1 UNL1 0.000
    15 C      -6.057166    -4.474841     1.545339 C          1 UNL1 0.000
    16 C      -1.843511     0.602895     1.738230 C          1 UNL1 0.000
    17 C      -1.142104     0.861700     2.921612 C          1 UNL1 0.000
    18 C       0.245402     0.925435     2.897525 C          1 UNL1 0.000
    19 C       0.952620     0.775441     1.709115 C          1 UNL1 0.000
    20 C       0.262317     0.531088     0.519244 C          1 UNL1 0.000
    21 C      -1.133921     0.415544     0.539874 C          1 UNL1 0.000
    22 F       0.913598     1.156108     4.034509 F          1 UNL1 0.000
    23 H      -6.844909     3.291065     2.976624 H          1 UNL1 0.000
    24 H      -5.674875     1.143330     2.924874 H          1 UNL1 0.000
    25 H      -2.444974     2.984059     0.725883 H          1 UNL1 0.000
    26 H      -3.597442     5.123283     0.820845 H          1 UNL1 0.000
    27 H      -5.630913     0.042542     0.471533 H          1 UNL1 0.000
    28 H      -6.822119    -2.091138     0.423618 H          1 UNL1 0.000
    29 H      -3.657052    -3.917542     2.702921 H          1 UNL1 0.000
    30 H      -2.477157    -1.783948     2.786112 H          1 UNL1 0.000
    31 H      -5.489672     6.457695     1.402140 H          1 UNL1 0.000
    32 H      -6.154861     6.005221     2.979741 H          1 UNL1 0.000
    33 H      -7.024780     5.583711     1.478431 H          1 UNL1 0.000
    34 H      -5.567989    -5.148890     0.835539 H          1 UNL1 0.000
    35 H      -7.102470    -4.352039     1.243143 H          1 UNL1 0.000
    36 H      -6.056787    -4.937450     2.538106 H          1 UNL1 0.000
    37 H      -1.671674     1.011042     3.857310 H          1 UNL1 0.000
    38 H       2.035393     0.859484     1.725447 H          1 UNL1 0.000
    39 H      -1.687207     0.246831    -0.381626 H          1 UNL1 0.000
    40 C       0.984523     0.483056    -0.741499 C          1 UNL1 0.000
    41 C       0.955815    -0.626107    -1.561985 C          1 UNL1 0.000
    42 S       1.874887    -0.401930    -2.990363 S          1 UNL1 0.000
    43 C       2.313136     1.184794    -2.527318 C          1 UNL1 0.000
    44 C       1.778989     1.531505    -1.305929 C          1 UNL1 0.000
    45 H       0.444670    -1.565660    -1.398852 H          1 UNL1 0.000
    46 H       2.938019     1.788228    -3.171490 H          1 UNL1 0.000
    47 H       1.935969     2.499964    -0.845965 H          1 UNL1 0.000
@<TRIPOS>BOND
     1      1      2   2
     2      2      3   1
     3      3      4   2
     4      4      5   1
     5      5      6   2
     6      6      1   1
     7      4      7   1
     8      7      8   1
     9      8      9   2
    10      9     10   1
    11     10     11   2
    12     11     12   1
    13     12     13   2
    14     13      8   1
    15      1     14   1
    16     11     15   1
    17     16     17   2
    18     17     18   1
    19     18     19   2
    20     19     20   1
    21     20     21   2
    22     21     16   1
    23     18     22   1
    24      7     16   1
    25      2     23   1
    26      3     24   1
    27      5     25   1
    28      6     26   1
    29      9     27   1
    30     10     28   1
    31     12     29   1
    32     13     30   1
    33     14     31   1
    34     14     32   1
    35     14     33   1
    36     15     34   1
    37     15     35   1
    38     15     36   1
    39     17     37   1
    40     19     38   1
    41     21     39   1
    42     40     41   2
    43     41     42   1
    44     42     43   1
    45     43     44   2
    46     44     40   1
    47     41     45   1
    48     43     46   1
    49     44     47   1
    50     20     40   1
