# Produced with molli package
@<TRIPOS>MOLECULE
C_10_Q
48 51 0 0 0
SMALL
USER_CHARGES

@<TRIPOS>ATOM
     1 C      -5.227479     4.296802     1.523486 C          1 UNL1 0.000
     2 C      -5.792008     3.170534     0.920228 C          1 UNL1 0.000
     3 C      -5.118316     1.942614     0.935701 C          1 UNL1 0.000
     4 C      -3.869164     1.800616     1.563777 C          1 UNL1 0.000
     5 C      -3.294607     2.955584     2.124330 C          1 UNL1 0.000
     6 C      -3.963947     4.184440     2.108070 C          1 UNL1 0.000
     7 N      -3.193019     0.526278     1.624168 N          1 UNL1 0.000
     8 C      -3.893721    -0.734075     1.743009 C          1 UNL1 0.000
     9 C      -5.131670    -0.838247     2.398359 C          1 UNL1 0.000
    10 C      -5.798300    -2.065773     2.504536 C          1 UNL1 0.000
    11 C      -5.234959    -3.230736     1.975969 C          1 UNL1 0.000
    12 C      -3.995777    -3.149215     1.339551 C          1 UNL1 0.000
    13 C      -3.336047    -1.920279     1.228217 C          1 UNL1 0.000
    14 C      -5.938737     5.616892     1.522281 C          1 UNL1 0.000
    15 C      -5.961157    -4.538121     2.085472 C          1 UNL1 0.000
    16 C      -1.756139     0.503739     1.641126 C          1 UNL1 0.000
    17 C      -1.070888     0.234057     2.831353 C          1 UNL1 0.000
    18 C       0.313999     0.169161     2.822244 C          1 UNL1 0.000
    19 C       1.034998     0.320473     1.642143 C          1 UNL1 0.000
    20 C       0.371272     0.566130     0.429924 C          1 UNL1 0.000
    21 C      -1.028716     0.695771     0.453092 C          1 UNL1 0.000
    22 F       0.971151    -0.062440     3.966327 F          1 UNL1 0.000
    23 H      -6.762573     3.234271     0.433609 H          1 UNL1 0.000
    24 H      -5.581796     1.093937     0.438368 H          1 UNL1 0.000
    25 H      -2.323451     2.912783     2.609937 H          1 UNL1 0.000
    26 H      -3.491309     5.050855     2.565583 H          1 UNL1 0.000
    27 H      -5.589303     0.035345     2.855725 H          1 UNL1 0.000
    28 H      -6.760324    -2.104160     3.010896 H          1 UNL1 0.000
    29 H      -3.529766    -4.038112     0.920451 H          1 UNL1 0.000
    30 H      -2.380041    -1.903824     0.711983 H          1 UNL1 0.000
    31 H      -5.437803     6.314547     0.844146 H          1 UNL1 0.000
    32 H      -5.949717     6.042420     2.531495 H          1 UNL1 0.000
    33 H      -6.979811     5.510417     1.200253 H          1 UNL1 0.000
    34 H      -5.357582    -5.365995     1.698415 H          1 UNL1 0.000
    35 H      -6.891535    -4.500911     1.509984 H          1 UNL1 0.000
    36 H      -6.192560    -4.756912     3.132781 H          1 UNL1 0.000
    37 H      -1.612276     0.086655     3.760291 H          1 UNL1 0.000
    38 H       2.118690     0.246937     1.682506 H          1 UNL1 0.000
    39 H      -1.568237     0.895037    -0.472428 H          1 UNL1 0.000
    40 C       1.109728     0.636362    -0.832330 C          1 UNL1 0.000
    41 N       0.980996     1.776915    -1.554953 N          1 UNL1 0.000
    42 C       1.675472     1.820006    -2.716960 C          1 UNL1 0.000
    43 C       2.459317     0.767421    -3.159320 C          1 UNL1 0.000
    44 N       2.588670    -0.380084    -2.459512 N          1 UNL1 0.000
    45 C       1.899153    -0.418699    -1.292659 C          1 UNL1 0.000
    46 H       1.585391     2.736109    -3.289521 H          1 UNL1 0.000
    47 H       3.006476     0.819391    -4.093624 H          1 UNL1 0.000
    48 H       1.989372    -1.344788    -0.733877 H          1 UNL1 0.000
@<TRIPOS>BOND
     1      1      2   2
     2      2      3   1
     3      3      4   2
     4      4      5   1
     5      5      6   2
     6      6      1   1
     7      4      7   1
     8      7      8   1
     9      8      9   2
    10      9     10   1
    11     10     11   2
    12     11     12   1
    13     12     13   2
    14     13      8   1
    15      1     14   1
    16     11     15   1
    17     16     17   2
    18     17     18   1
    19     18     19   2
    20     19     20   1
    21     20     21   2
    22     21     16   1
    23     18     22   1
    24      7     16   1
    25      2     23   1
    26      3     24   1
    27      5     25   1
    28      6     26   1
    29      9     27   1
    30     10     28   1
    31     12     29   1
    32     13     30   1
    33     14     31   1
    34     14     32   1
    35     14     33   1
    36     15     34   1
    37     15     35   1
    38     15     36   1
    39     17     37   1
    40     19     38   1
    41     21     39   1
    42     40     41   2
    43     41     42   1
    44     42     43   2
    45     43     44   1
    46     44     45   2
    47     45     40   1
    48     42     46   1
    49     43     47   1
    50     45     48   1
    51     20     40   1
