# Produced with molli package
@<TRIPOS>MOLECULE
C_10_R
51 54 0 0 0
SMALL
USER_CHARGES

@<TRIPOS>ATOM
     1 C      -5.079308     4.229679     1.521065 C          1 UNL1 0.000
     2 C      -5.672212     3.099709     0.953724 C          1 UNL1 0.000
     3 C      -5.014670     1.862886     0.978694 C          1 UNL1 0.000
     4 C      -3.757590     1.712491     1.588994 C          1 UNL1 0.000
     5 C      -3.154939     2.871818     2.111007 C          1 UNL1 0.000
     6 C      -3.805776     4.110444     2.081309 C          1 UNL1 0.000
     7 N      -3.099947     0.428001     1.669841 N          1 UNL1 0.000
     8 C      -3.815963    -0.823562     1.802265 C          1 UNL1 0.000
     9 C      -5.071738    -0.902280     2.427200 C          1 UNL1 0.000
    10 C      -5.762473    -2.117145     2.528388 C          1 UNL1 0.000
    11 C      -5.207696    -3.296094     2.023696 C          1 UNL1 0.000
    12 C      -3.939877    -3.246001     1.443196 C          1 UNL1 0.000
    13 C      -3.258134    -2.028558     1.332569 C          1 UNL1 0.000
    14 C      -5.776407     5.557250     1.521313 C          1 UNL1 0.000
    15 C      -5.947971    -4.594485     2.145124 C          1 UNL1 0.000
    16 C      -1.662982     0.389783     1.687074 C          1 UNL1 0.000
    17 C      -0.979428     0.175058     2.889663 C          1 UNL1 0.000
    18 C       0.405766     0.106243     2.885402 C          1 UNL1 0.000
    19 C       1.127797     0.200709     1.700418 C          1 UNL1 0.000
    20 C       0.464061     0.388810     0.479024 C          1 UNL1 0.000
    21 C      -0.934890     0.519990     0.490941 C          1 UNL1 0.000
    22 F       1.061093    -0.073683     4.039597 F          1 UNL1 0.000
    23 H      -6.653086     3.166870     0.488660 H          1 UNL1 0.000
    24 H      -5.500921     1.013539     0.505033 H          1 UNL1 0.000
    25 H      -2.174700     2.827439     2.577715 H          1 UNL1 0.000
    26 H      -3.311161     4.978972     2.510834 H          1 UNL1 0.000
    27 H      -5.528374    -0.017509     2.863549 H          1 UNL1 0.000
    28 H      -6.738015    -2.133193     3.009576 H          1 UNL1 0.000
    29 H      -3.470457    -4.150722     1.063666 H          1 UNL1 0.000
    30 H      -2.283346    -2.038516     0.853135 H          1 UNL1 0.000
    31 H      -5.238467     6.266946     0.885229 H          1 UNL1 0.000
    32 H      -5.828104     5.955428     2.540356 H          1 UNL1 0.000
    33 H      -6.802105     5.472383     1.147822 H          1 UNL1 0.000
    34 H      -5.494536    -5.371805     1.520763 H          1 UNL1 0.000
    35 H      -6.985056    -4.474158     1.814999 H          1 UNL1 0.000
    36 H      -5.938026    -4.938154     3.183962 H          1 UNL1 0.000
    37 H      -1.522024     0.075440     3.824270 H          1 UNL1 0.000
    38 H       2.211022     0.124415     1.740283 H          1 UNL1 0.000
    39 H      -1.472629     0.676957    -0.443062 H          1 UNL1 0.000
    40 C       1.208400     0.390004    -0.780897 C          1 UNL1 0.000
    41 N       1.287975     1.577326    -1.430936 N          1 UNL1 0.000
    42 C       1.990670     1.610983    -2.592474 C          1 UNL1 0.000
    43 C       2.603746     0.494479    -3.138143 C          1 UNL1 0.000
    44 C       2.505916    -0.727502    -2.474442 C          1 UNL1 0.000
    45 C       1.800478    -0.776214    -1.273066 C          1 UNL1 0.000
    46 N       3.337497     0.608268    -4.386672 N          1 UNL1 0.000
    47 O       3.564895    -0.436326    -5.013260 O          1 UNL1 0.000
    48 O       3.693588     1.739017    -4.743369 O          1 UNL1 0.000
    49 H       2.032142     2.588745    -3.066368 H          1 UNL1 0.000
    50 H       2.967434    -1.629780    -2.868377 H          1 UNL1 0.000
    51 H       1.707461    -1.714081    -0.732135 H          1 UNL1 0.000
@<TRIPOS>BOND
     1      1      2   2
     2      2      3   1
     3      3      4   2
     4      4      5   1
     5      5      6   2
     6      6      1   1
     7      4      7   1
     8      7      8   1
     9      8      9   2
    10      9     10   1
    11     10     11   2
    12     11     12   1
    13     12     13   2
    14     13      8   1
    15      1     14   1
    16     11     15   1
    17     16     17   2
    18     17     18   1
    19     18     19   2
    20     19     20   1
    21     20     21   2
    22     21     16   1
    23     18     22   1
    24      7     16   1
    25      2     23   1
    26      3     24   1
    27      5     25   1
    28      6     26   1
    29      9     27   1
    30     10     28   1
    31     12     29   1
    32     13     30   1
    33     14     31   1
    34     14     32   1
    35     14     33   1
    36     15     34   1
    37     15     35   1
    38     15     36   1
    39     17     37   1
    40     19     38   1
    41     21     39   1
    42     40     41   2
    43     41     42   1
    44     42     43   2
    45     43     44   1
    46     44     45   2
    47     45     40   1
    48     46     47   2
    49     46     48   1
    50     43     46   1
    51     42     49   1
    52     44     50   1
    53     45     51   1
    54     20     40   1
