# Produced with molli package
@<TRIPOS>MOLECULE
C_10_M
51 54 0 0 0
SMALL
USER_CHARGES

@<TRIPOS>ATOM
     1 C      -5.205160     4.297367     1.690586 C          1 UNL1 0.000
     2 C      -5.861043     3.164758     1.205708 C          1 UNL1 0.000
     3 C      -5.204784     1.925750     1.154176 C          1 UNL1 0.000
     4 C      -3.896836     1.762651     1.640300 C          1 UNL1 0.000
     5 C      -3.234693     2.932745     2.065221 C          1 UNL1 0.000
     6 C      -3.875877     4.176933     2.094167 C          1 UNL1 0.000
     7 N      -3.240002     0.470096     1.697184 N          1 UNL1 0.000
     8 C      -3.934341    -0.799746     1.817777 C          1 UNL1 0.000
     9 C      -5.227279    -0.912057     2.355265 C          1 UNL1 0.000
    10 C      -5.900228    -2.141849     2.406250 C          1 UNL1 0.000
    11 C      -5.280443    -3.312906     1.965788 C          1 UNL1 0.000
    12 C      -3.968901    -3.238001     1.499981 C          1 UNL1 0.000
    13 C      -3.312053    -2.003061     1.424311 C          1 UNL1 0.000
    14 C      -5.912188     5.612842     1.823225 C          1 UNL1 0.000
    15 C      -6.012781    -4.620545     2.008624 C          1 UNL1 0.000
    16 C      -1.800418     0.445884     1.722435 C          1 UNL1 0.000
    17 C      -1.119744     0.355277     2.942566 C          1 UNL1 0.000
    18 C       0.267165     0.336589     2.950076 C          1 UNL1 0.000
    19 C       0.994914     0.371512     1.764541 C          1 UNL1 0.000
    20 C       0.334679     0.442670     0.529687 C          1 UNL1 0.000
    21 C      -1.068593     0.501348     0.522478 C          1 UNL1 0.000
    22 F       0.919156     0.284413     4.118967 F          1 UNL1 0.000
    23 H      -6.893165     3.229531     0.868228 H          1 UNL1 0.000
    24 H      -5.746429     1.086435     0.726355 H          1 UNL1 0.000
    25 H      -2.206966     2.899634     2.415273 H          1 UNL1 0.000
    26 H      -3.329994     5.045676     2.455769 H          1 UNL1 0.000
    27 H      -5.739851    -0.044807     2.761427 H          1 UNL1 0.000
    28 H      -6.914880    -2.174592     2.797590 H          1 UNL1 0.000
    29 H      -3.443797    -4.135172     1.179984 H          1 UNL1 0.000
    30 H      -2.298468    -2.005289     1.033206 H          1 UNL1 0.000
    31 H      -5.316487     6.415660     1.377175 H          1 UNL1 0.000
    32 H      -6.079491     5.838417     2.881936 H          1 UNL1 0.000
    33 H      -6.884434     5.599560     1.320514 H          1 UNL1 0.000
    34 H      -5.413857    -5.430131     1.577913 H          1 UNL1 0.000
    35 H      -6.940000    -4.551960     1.430097 H          1 UNL1 0.000
    36 H      -6.251175    -4.888679     3.042402 H          1 UNL1 0.000
    37 H      -1.666252     0.320036     3.879512 H          1 UNL1 0.000
    38 H       2.080164     0.345126     1.815182 H          1 UNL1 0.000
    39 H      -1.608350     0.555204    -0.421734 H          1 UNL1 0.000
    40 C       1.095252     0.436622    -0.722791 C          1 UNL1 0.000
    41 C       1.232283     1.604153    -1.487425 C          1 UNL1 0.000
    42 C       1.970862     1.598488    -2.675451 C          1 UNL1 0.000
    43 C       2.578476     0.420386    -3.119151 C          1 UNL1 0.000
    44 C       2.444186    -0.751185    -2.369647 C          1 UNL1 0.000
    45 C       1.709507    -0.740732    -1.179654 C          1 UNL1 0.000
    46 C       3.337360     0.414239    -4.336485 C          1 UNL1 0.000
    47 N       3.951916     0.408884    -5.319499 N          1 UNL1 0.000
    48 H       0.769204     2.531477    -1.153952 H          1 UNL1 0.000
    49 H       2.068189     2.519834    -3.246797 H          1 UNL1 0.000
    50 H       2.908182    -1.677912    -2.702752 H          1 UNL1 0.000
    51 H       1.613171    -1.663346    -0.609029 H          1 UNL1 0.000
@<TRIPOS>BOND
     1      1      2   2
     2      2      3   1
     3      3      4   2
     4      4      5   1
     5      5      6   2
     6      6      1   1
     7      4      7   1
     8      7      8   1
     9      8      9   2
    10      9     10   1
    11     10     11   2
    12     11     12   1
    13     12     13   2
    14     13      8   1
    15      1     14   1
    16     11     15   1
    17     16     17   2
    18     17     18   1
    19     18     19   2
    20     19     20   1
    21     20     21   2
    22     21     16   1
    23     18     22   1
    24      7     16   1
    25      2     23   1
    26      3     24   1
    27      5     25   1
    28      6     26   1
    29      9     27   1
    30     10     28   1
    31     12     29   1
    32     13     30   1
    33     14     31   1
    34     14     32   1
    35     14     33   1
    36     15     34   1
    37     15     35   1
    38     15     36   1
    39     17     37   1
    40     19     38   1
    41     21     39   1
    42     40     41   2
    43     41     42   1
    44     42     43   2
    45     43     44   1
    46     44     45   2
    47     45     40   1
    48     46     47   3
    49     43     46   1
    50     41     48   1
    51     42     49   1
    52     44     50   1
    53     45     51   1
    54     20     40   1
