# Produced with molli package
@<TRIPOS>MOLECULE
C_10_P
54 57 0 0 0
SMALL
USER_CHARGES

@<TRIPOS>ATOM
     1 C      -5.242969     4.342491     1.946369 C          1 UNL1 0.000
     2 C      -5.846834     3.193415     2.462999 C          1 UNL1 0.000
     3 C      -5.186790     1.957580     2.419683 C          1 UNL1 0.000
     4 C      -3.917747     1.823478     1.832190 C          1 UNL1 0.000
     5 C      -3.312250     3.001172     1.350385 C          1 UNL1 0.000
     6 C      -3.961169     4.240191     1.406409 C          1 UNL1 0.000
     7 N      -3.234720     0.548487     1.749486 N          1 UNL1 0.000
     8 C      -3.915981    -0.727676     1.704612 C          1 UNL1 0.000
     9 C      -5.190460    -0.873031     1.130680 C          1 UNL1 0.000
    10 C      -5.865863    -2.101411     1.145354 C          1 UNL1 0.000
    11 C      -5.269323    -3.233402     1.704345 C          1 UNL1 0.000
    12 C      -3.980234    -3.122241     2.227750 C          1 UNL1 0.000
    13 C      -3.314749    -1.890779     2.223112 C          1 UNL1 0.000
    14 C      -5.958915     5.659141     1.990068 C          1 UNL1 0.000
    15 C      -5.991388    -4.546153     1.765453 C          1 UNL1 0.000
    16 C      -1.796506     0.554006     1.755573 C          1 UNL1 0.000
    17 C      -1.097409     0.713157     2.957091 C          1 UNL1 0.000
    18 C       0.290519     0.727195     2.943971 C          1 UNL1 0.000
    19 C       0.999891     0.621626     1.751096 C          1 UNL1 0.000
    20 C       0.319404     0.487627     0.534073 C          1 UNL1 0.000
    21 C      -1.083225     0.429545     0.549903 C          1 UNL1 0.000
    22 F       0.959130     0.853202     4.096847 F          1 UNL1 0.000
    23 H      -6.837667     3.249482     2.908598 H          1 UNL1 0.000
    24 H      -5.681643     1.101292     2.870276 H          1 UNL1 0.000
    25 H      -2.322631     2.974921     0.902621 H          1 UNL1 0.000
    26 H      -3.453579     5.119213     1.015796 H          1 UNL1 0.000
    27 H      -5.680109    -0.027530     0.654073 H          1 UNL1 0.000
    28 H      -6.863411    -2.160054     0.715784 H          1 UNL1 0.000
    29 H      -3.484594    -3.990664     2.656270 H          1 UNL1 0.000
    30 H      -2.321229    -1.856619     2.661279 H          1 UNL1 0.000
    31 H      -5.385823     6.444125     1.485090 H          1 UNL1 0.000
    32 H      -6.117204     5.969601     3.027429 H          1 UNL1 0.000
    33 H      -6.926888     5.579370     1.484640 H          1 UNL1 0.000
    34 H      -5.399790    -5.328905     1.280035 H          1 UNL1 0.000
    35 H      -6.961167    -4.496285     1.259948 H          1 UNL1 0.000
    36 H      -6.169511    -4.826400     2.809059 H          1 UNL1 0.000
    37 H      -1.629093     0.810919     3.898196 H          1 UNL1 0.000
    38 H       2.085656     0.658191     1.780206 H          1 UNL1 0.000
    39 H      -1.634256     0.323074    -0.382904 H          1 UNL1 0.000
    40 C       1.057977     0.447892    -0.729347 C          1 UNL1 0.000
    41 C       1.293309     1.629745    -1.451841 C          1 UNL1 0.000
    42 C       2.016804     1.605473    -2.647043 C          1 UNL1 0.000
    43 C       2.519122     0.396446    -3.121289 C          1 UNL1 0.000
    44 C       2.266407    -0.789552    -2.437482 C          1 UNL1 0.000
    45 C       1.547709    -0.762610    -1.239782 C          1 UNL1 0.000
    46 O       3.212581     0.318753    -4.297863 O          1 UNL1 0.000
    47 C       4.476904     0.972855    -4.190831 C          1 UNL1 0.000
    48 H       0.908771     2.579260    -1.084466 H          1 UNL1 0.000
    49 H       2.170921     2.525088    -3.203136 H          1 UNL1 0.000
    50 H       2.635713    -1.732063    -2.830956 H          1 UNL1 0.000
    51 H       1.368363    -1.693654    -0.706687 H          1 UNL1 0.000
    52 H       5.065910     0.707123    -5.073872 H          1 UNL1 0.000
    53 H       5.027883     0.636556    -3.304792 H          1 UNL1 0.000
    54 H       4.359110     2.061157    -4.178996 H          1 UNL1 0.000
@<TRIPOS>BOND
     1      1      2   2
     2      2      3   1
     3      3      4   2
     4      4      5   1
     5      5      6   2
     6      6      1   1
     7      4      7   1
     8      7      8   1
     9      8      9   2
    10      9     10   1
    11     10     11   2
    12     11     12   1
    13     12     13   2
    14     13      8   1
    15      1     14   1
    16     11     15   1
    17     16     17   2
    18     17     18   1
    19     18     19   2
    20     19     20   1
    21     20     21   2
    22     21     16   1
    23     18     22   1
    24      7     16   1
    25      2     23   1
    26      3     24   1
    27      5     25   1
    28      6     26   1
    29      9     27   1
    30     10     28   1
    31     12     29   1
    32     13     30   1
    33     14     31   1
    34     14     32   1
    35     14     33   1
    36     15     34   1
    37     15     35   1
    38     15     36   1
    39     17     37   1
    40     19     38   1
    41     21     39   1
    42     40     41   2
    43     41     42   1
    44     42     43   2
    45     43     44   1
    46     44     45   2
    47     45     40   1
    48     46     47   1
    49     43     46   1
    50     41     48   1
    51     42     49   1
    52     44     50   1
    53     45     51   1
    54     47     52   1
    55     47     53   1
    56     47     54   1
    57     20     40   1
