# Produced with molli package
@<TRIPOS>MOLECULE
C_10_T
53 56 0 0 0
SMALL
USER_CHARGES

@<TRIPOS>ATOM
     1 C      -5.234786     4.264523     1.608046 C          1 UNL1 0.000
     2 C      -5.832656     3.126391     1.062495 C          1 UNL1 0.000
     3 C      -5.173521     1.890213     1.095184 C          1 UNL1 0.000
     4 C      -3.907226     1.749095     1.688008 C          1 UNL1 0.000
     5 C      -3.305918     2.914323     2.199760 C          1 UNL1 0.000
     6 C      -3.958434     4.151994     2.162795 C          1 UNL1 0.000
     7 N      -3.232921     0.472627     1.751840 N          1 UNL1 0.000
     8 C      -3.928462    -0.793967     1.818287 C          1 UNL1 0.000
     9 C      -5.162641    -0.931149     2.474317 C          1 UNL1 0.000
    10 C      -5.828426    -2.163376     2.523446 C          1 UNL1 0.000
    11 C      -5.273226    -3.297415     1.924147 C          1 UNL1 0.000
    12 C      -4.025887    -3.188597     1.307841 C          1 UNL1 0.000
    13 C      -3.367118    -1.955820     1.254229 C          1 UNL1 0.000
    14 C      -5.926950     5.594493     1.583881 C          1 UNL1 0.000
    15 C      -5.968169    -4.624081     1.998029 C          1 UNL1 0.000
    16 C      -1.795880     0.449674     1.770589 C          1 UNL1 0.000
    17 C      -1.111714     0.207969     2.967426 C          1 UNL1 0.000
    18 C       0.273738     0.145553     2.960384 C          1 UNL1 0.000
    19 C       0.994830     0.278585     1.778286 C          1 UNL1 0.000
    20 C       0.330268     0.498101     0.562751 C          1 UNL1 0.000
    21 C      -1.069015     0.615739     0.578323 C          1 UNL1 0.000
    22 F       0.929698    -0.065460     4.109505 F          1 UNL1 0.000
    23 H      -6.817275     3.187169     0.604404 H          1 UNL1 0.000
    24 H      -5.663708     1.036680     0.633425 H          1 UNL1 0.000
    25 H      -2.321930     2.875696     2.659301 H          1 UNL1 0.000
    26 H      -3.461498     5.025581     2.579102 H          1 UNL1 0.000
    27 H      -5.615925    -0.080751     2.977547 H          1 UNL1 0.000
    28 H      -6.783967    -2.228030     3.039111 H          1 UNL1 0.000
    29 H      -3.554780    -4.059673     0.857892 H          1 UNL1 0.000
    30 H      -2.407922    -1.917694     0.744873 H          1 UNL1 0.000
    31 H      -5.398490     6.282434     0.916486 H          1 UNL1 0.000
    32 H      -5.957114     6.023395     2.591143 H          1 UNL1 0.000
    33 H      -6.959955     5.503292     1.232715 H          1 UNL1 0.000
    34 H      -5.730743    -5.237317     1.121891 H          1 UNL1 0.000
    35 H      -7.055304    -4.495521     2.017709 H          1 UNL1 0.000
    36 H      -5.657145    -5.161112     2.899224 H          1 UNL1 0.000
    37 H      -1.653752     0.075483     3.897970 H          1 UNL1 0.000
    38 H       2.077973     0.197940     1.812077 H          1 UNL1 0.000
    39 H      -1.612048     0.775502    -0.352098 H          1 UNL1 0.000
    40 C       1.075048     0.535304    -0.699952 C          1 UNL1 0.000
    41 C       1.716313    -0.619840    -1.175116 C          1 UNL1 0.000
    42 C       2.424272    -0.607902    -2.379490 C          1 UNL1 0.000
    43 C       2.507653     0.563301    -3.136881 C          1 UNL1 0.000
    44 C       1.872745     1.720196    -2.669820 C          1 UNL1 0.000
    45 C       1.159724     1.704844    -1.466162 C          1 UNL1 0.000
    46 C       3.276365     0.593346    -4.424344 C          1 UNL1 0.000
    47 H       1.658163    -1.547549    -0.608740 H          1 UNL1 0.000
    48 H       2.906160    -1.521820    -2.719096 H          1 UNL1 0.000
    49 H       1.929777     2.643799    -3.241720 H          1 UNL1 0.000
    50 H       0.676222     2.617923    -1.125227 H          1 UNL1 0.000
    51 H       4.138353     1.261548    -4.332009 H          1 UNL1 0.000
    52 H       2.635117     0.940887    -5.240623 H          1 UNL1 0.000
    53 H       3.647195    -0.401415    -4.693421 H          1 UNL1 0.000
@<TRIPOS>BOND
     1      1      2   2
     2      2      3   1
     3      3      4   2
     4      4      5   1
     5      5      6   2
     6      6      1   1
     7      4      7   1
     8      7      8   1
     9      8      9   2
    10      9     10   1
    11     10     11   2
    12     11     12   1
    13     12     13   2
    14     13      8   1
    15      1     14   1
    16     11     15   1
    17     16     17   2
    18     17     18   1
    19     18     19   2
    20     19     20   1
    21     20     21   2
    22     21     16   1
    23     18     22   1
    24      7     16   1
    25      2     23   1
    26      3     24   1
    27      5     25   1
    28      6     26   1
    29      9     27   1
    30     10     28   1
    31     12     29   1
    32     13     30   1
    33     14     31   1
    34     14     32   1
    35     14     33   1
    36     15     34   1
    37     15     35   1
    38     15     36   1
    39     17     37   1
    40     19     38   1
    41     21     39   1
    42     40     41   2
    43     41     42   1
    44     42     43   2
    45     43     44   1
    46     44     45   2
    47     45     40   1
    48     43     46   1
    49     41     47   1
    50     42     48   1
    51     44     49   1
    52     45     50   1
    53     46     51   1
    54     46     52   1
    55     46     53   1
    56     20     40   1
