# Produced with molli package
@<TRIPOS>MOLECULE
C_1_S
55 58 0 0 0
SMALL
USER_CHARGES

@<TRIPOS>ATOM
     1 C      -6.005483     4.306361     0.776158 C          1 UNL1 0.000
     2 C      -6.592629     3.151952     1.299520 C          1 UNL1 0.000
     3 C      -5.911880     1.927322     1.268070 C          1 UNL1 0.000
     4 C      -4.643731     1.806564     0.675572 C          1 UNL1 0.000
     5 C      -4.049528     2.991887     0.199444 C          1 UNL1 0.000
     6 C      -4.718049     4.221287     0.245911 C          1 UNL1 0.000
     7 N      -3.958317     0.535025     0.565590 N          1 UNL1 0.000
     8 C      -4.637384    -0.741800     0.474313 C          1 UNL1 0.000
     9 C      -5.933641    -0.867340    -0.053640 C          1 UNL1 0.000
    10 C      -6.605772    -2.097467    -0.066946 C          1 UNL1 0.000
    11 C      -5.980470    -3.253895     0.402838 C          1 UNL1 0.000
    12 C      -4.670100    -3.162218     0.874020 C          1 UNL1 0.000
    13 C      -4.010421    -1.927719     0.904742 C          1 UNL1 0.000
    14 C      -6.759194     5.602515     0.771435 C          1 UNL1 0.000
    15 C      -6.708406    -4.563720     0.453359 C          1 UNL1 0.000
    16 C      -2.520319     0.541780     0.549240 C          1 UNL1 0.000
    17 C      -1.799567     0.711343     1.739265 C          1 UNL1 0.000
    18 C      -0.402231     0.705499     1.723709 C          1 UNL1 0.000
    19 C       0.300419     0.555776     0.518309 C          1 UNL1 0.000
    20 C      -0.426585     0.397363    -0.671160 C          1 UNL1 0.000
    21 C      -1.823934     0.377948    -0.656076 C          1 UNL1 0.000
    22 H      -7.589001     3.193301     1.734159 H          1 UNL1 0.000
    23 H      -6.394821     1.065419     1.720959 H          1 UNL1 0.000
    24 H      -3.057426     2.975770    -0.243967 H          1 UNL1 0.000
    25 H      -4.223620     5.105036    -0.150703 H          1 UNL1 0.000
    26 H      -6.447870    -0.004696    -0.468951 H          1 UNL1 0.000
    27 H      -7.624032    -2.138124    -0.447173 H          1 UNL1 0.000
    28 H      -4.152467    -4.047857     1.235868 H          1 UNL1 0.000
    29 H      -2.997954    -1.909500     1.299432 H          1 UNL1 0.000
    30 H      -6.145250     6.422670     0.384396 H          1 UNL1 0.000
    31 H      -7.070243     5.866961     1.786760 H          1 UNL1 0.000
    32 H      -7.644932     5.517443     0.133195 H          1 UNL1 0.000
    33 H      -6.073412    -5.371827     0.076036 H          1 UNL1 0.000
    34 H      -7.614874    -4.541771    -0.160117 H          1 UNL1 0.000
    35 H      -6.997031    -4.788636     1.485409 H          1 UNL1 0.000
    36 H      -2.330990     0.825451     2.680752 H          1 UNL1 0.000
    37 H       0.138703     0.815891     2.661335 H          1 UNL1 0.000
    38 H       0.095160     0.287220    -1.619626 H          1 UNL1 0.000
    39 H      -2.374563     0.255411    -1.585369 H          1 UNL1 0.000
    40 C       1.764726     0.562119     0.503597 C          1 UNL1 0.000
    41 C       2.486043    -0.633759     0.608597 C          1 UNL1 0.000
    42 C       3.884391    -0.625518     0.605614 C          1 UNL1 0.000
    43 C       4.590518     0.580234     0.498324 C          1 UNL1 0.000
    44 C       3.877210     1.776646     0.373832 C          1 UNL1 0.000
    45 C       2.476163     1.764655     0.382874 C          1 UNL1 0.000
    46 C       6.083722     0.522291     0.514943 C          1 UNL1 0.000
    47 C       6.887827     1.789298     0.659956 C          1 UNL1 0.000
    48 O       6.648709    -0.563123     0.398365 O          1 UNL1 0.000
    49 H       1.960840    -1.583219     0.696067 H          1 UNL1 0.000
    50 H       4.420017    -1.569767     0.690681 H          1 UNL1 0.000
    51 H       4.377153     2.733205     0.258925 H          1 UNL1 0.000
    52 H       1.935317     2.705486     0.291814 H          1 UNL1 0.000
    53 H       7.760076     1.577219     1.286709 H          1 UNL1 0.000
    54 H       6.332983     2.585821     1.157680 H          1 UNL1 0.000
    55 H       7.220970     2.122702    -0.325916 H          1 UNL1 0.000
@<TRIPOS>BOND
     1      1      2   2
     2      2      3   1
     3      3      4   2
     4      4      5   1
     5      5      6   2
     6      6      1   1
     7      4      7   1
     8      7      8   1
     9      8      9   2
    10      9     10   1
    11     10     11   2
    12     11     12   1
    13     12     13   2
    14     13      8   1
    15      1     14   1
    16     11     15   1
    17     16     17   2
    18     17     18   1
    19     18     19   2
    20     19     20   1
    21     20     21   2
    22     21     16   1
    23      7     16   1
    24      2     22   1
    25      3     23   1
    26      5     24   1
    27      6     25   1
    28      9     26   1
    29     10     27   1
    30     12     28   1
    31     13     29   1
    32     14     30   1
    33     14     31   1
    34     14     32   1
    35     15     33   1
    36     15     34   1
    37     15     35   1
    38     17     36   1
    39     18     37   1
    40     20     38   1
    41     21     39   1
    42     40     41   2
    43     41     42   1
    44     42     43   2
    45     43     44   1
    46     44     45   2
    47     45     40   1
    48     43     46   1
    49     46     47   1
    50     46     48   2
    51     41     49   1
    52     42     50   1
    53     44     51   1
    54     45     52   1
    55     47     53   1
    56     47     54   1
    57     47     55   1
    58     19     40   1
