# Produced with molli package
@<TRIPOS>MOLECULE
C_1_R
51 54 0 0 0
SMALL
USER_CHARGES

@<TRIPOS>ATOM
     1 C      -5.957925     4.326074     0.667311 C          1 UNL1 0.000
     2 C      -6.506801     3.180068     1.248805 C          1 UNL1 0.000
     3 C      -5.820749     1.959751     1.204679 C          1 UNL1 0.000
     4 C      -4.577350     1.842474     0.561720 C          1 UNL1 0.000
     5 C      -4.018018     3.017708     0.025325 C          1 UNL1 0.000
     6 C      -4.695492     4.241332     0.077856 C          1 UNL1 0.000
     7 N      -3.881183     0.579010     0.463934 N          1 UNL1 0.000
     8 C      -4.557798    -0.697381     0.379213 C          1 UNL1 0.000
     9 C      -5.834970    -0.827254    -0.192180 C          1 UNL1 0.000
    10 C      -6.500488    -2.059941    -0.224198 C          1 UNL1 0.000
    11 C      -5.890975    -3.209698     0.282804 C          1 UNL1 0.000
    12 C      -4.605044    -3.108250     0.816665 C          1 UNL1 0.000
    13 C      -3.948883    -1.872913     0.859037 C          1 UNL1 0.000
    14 C      -6.699500     5.628486     0.714331 C          1 UNL1 0.000
    15 C      -6.608471    -4.526146     0.298217 C          1 UNL1 0.000
    16 C      -2.444232     0.592055     0.473025 C          1 UNL1 0.000
    17 C      -1.747156     0.855332     1.660090 C          1 UNL1 0.000
    18 C      -0.350055     0.839001     1.675686 C          1 UNL1 0.000
    19 C       0.378022     0.582758     0.502876 C          1 UNL1 0.000
    20 C      -0.326529     0.327874    -0.684152 C          1 UNL1 0.000
    21 C      -1.724073     0.324465    -0.699092 C          1 UNL1 0.000
    22 H      -7.476077     3.225323     1.740452 H          1 UNL1 0.000
    23 H      -6.271924     1.098822     1.691650 H          1 UNL1 0.000
    24 H      -3.049626     2.993085    -0.467598 H          1 UNL1 0.000
    25 H      -4.229647     5.121697    -0.358886 H          1 UNL1 0.000
    26 H      -6.333189     0.033729    -0.630400 H          1 UNL1 0.000
    27 H      -7.499765    -2.108949    -0.650723 H          1 UNL1 0.000
    28 H      -4.103204    -3.987615     1.214399 H          1 UNL1 0.000
    29 H      -2.955226    -1.843431     1.299254 H          1 UNL1 0.000
    30 H      -6.269547     6.356559     0.018135 H          1 UNL1 0.000
    31 H      -6.659624     6.049423     1.723428 H          1 UNL1 0.000
    32 H      -7.745820     5.481682     0.426196 H          1 UNL1 0.000
    33 H      -5.958774    -5.320888    -0.082608 H          1 UNL1 0.000
    34 H      -7.504156    -4.501483    -0.330821 H          1 UNL1 0.000
    35 H      -6.913688    -4.772375     1.320445 H          1 UNL1 0.000
    36 H      -2.297171     1.040026     2.579553 H          1 UNL1 0.000
    37 H       0.170535     1.008767     2.615911 H          1 UNL1 0.000
    38 H       0.215233     0.122573    -1.605295 H          1 UNL1 0.000
    39 H      -2.255512     0.123959    -1.626086 H          1 UNL1 0.000
    40 C       1.840786     0.576453     0.518713 C          1 UNL1 0.000
    41 N       2.424596    -0.651615     0.536934 N          1 UNL1 0.000
    42 C       3.777125    -0.701151     0.572233 C          1 UNL1 0.000
    43 C       4.557388     0.438019     0.574281 C          1 UNL1 0.000
    44 C       3.969805     1.697899     0.544006 C          1 UNL1 0.000
    45 C       2.578010     1.764430     0.521637 C          1 UNL1 0.000
    46 N       5.985497     0.301318     0.610212 N          1 UNL1 0.000
    47 O       6.494863     0.030271     1.703703 O          1 UNL1 0.000
    48 O       6.591109     0.469790    -0.455144 O          1 UNL1 0.000
    49 H       4.204178    -1.699666     0.596353 H          1 UNL1 0.000
    50 H       4.567995     2.604308     0.542864 H          1 UNL1 0.000
    51 H       2.072452     2.725837     0.502360 H          1 UNL1 0.000
@<TRIPOS>BOND
     1      1      2   2
     2      2      3   1
     3      3      4   2
     4      4      5   1
     5      5      6   2
     6      6      1   1
     7      4      7   1
     8      7      8   1
     9      8      9   2
    10      9     10   1
    11     10     11   2
    12     11     12   1
    13     12     13   2
    14     13      8   1
    15      1     14   1
    16     11     15   1
    17     16     17   2
    18     17     18   1
    19     18     19   2
    20     19     20   1
    21     20     21   2
    22     21     16   1
    23      7     16   1
    24      2     22   1
    25      3     23   1
    26      5     24   1
    27      6     25   1
    28      9     26   1
    29     10     27   1
    30     12     28   1
    31     13     29   1
    32     14     30   1
    33     14     31   1
    34     14     32   1
    35     15     33   1
    36     15     34   1
    37     15     35   1
    38     17     36   1
    39     18     37   1
    40     20     38   1
    41     21     39   1
    42     40     41   2
    43     41     42   1
    44     42     43   2
    45     43     44   1
    46     44     45   2
    47     45     40   1
    48     46     47   2
    49     46     48   1
    50     43     46   1
    51     42     49   1
    52     44     50   1
    53     45     51   1
    54     19     40   1
