# Produced with molli package
@<TRIPOS>MOLECULE
C_1_T
53 56 0 0 0
SMALL
USER_CHARGES

@<TRIPOS>ATOM
     1 C      -6.015266     4.247401     0.450365 C          1 UNL1 0.000
     2 C      -6.565849     3.125492    -0.175166 C          1 UNL1 0.000
     3 C      -5.895431     1.895750    -0.151134 C          1 UNL1 0.000
     4 C      -4.666082     1.748467     0.511516 C          1 UNL1 0.000
     5 C      -4.116186     2.893155     1.118472 C          1 UNL1 0.000
     6 C      -4.780637     4.123463     1.091471 C          1 UNL1 0.000
     7 N      -3.971595     0.482591     0.559084 N          1 UNL1 0.000
     8 C      -4.656415    -0.788785     0.606313 C          1 UNL1 0.000
     9 C      -5.903055    -0.937083     1.235725 C          1 UNL1 0.000
    10 C      -6.564681    -2.171343     1.256760 C          1 UNL1 0.000
    11 C      -5.989336    -3.298024     0.661573 C          1 UNL1 0.000
    12 C      -4.736843    -3.174568     0.058019 C          1 UNL1 0.000
    13 C      -4.081545    -1.938639     0.032533 C          1 UNL1 0.000
    14 C      -6.725300     5.568121     0.445573 C          1 UNL1 0.000
    15 C      -6.708684    -4.613510     0.684008 C          1 UNL1 0.000
    16 C      -2.534049     0.491340     0.555954 C          1 UNL1 0.000
    17 C      -1.818112     0.042064     1.673967 C          1 UNL1 0.000
    18 C      -0.421064     0.064584     1.673376 C          1 UNL1 0.000
    19 C       0.289738     0.518250     0.551564 C          1 UNL1 0.000
    20 C      -0.432692     0.956496    -0.568746 C          1 UNL1 0.000
    21 C      -1.829807     0.952464    -0.564830 C          1 UNL1 0.000
    22 H      -7.520698     3.195423    -0.691000 H          1 UNL1 0.000
    23 H      -6.341867     1.053135    -0.673411 H          1 UNL1 0.000
    24 H      -3.165272     2.835531     1.642649 H          1 UNL1 0.000
    25 H      -4.326291     4.981845     1.581285 H          1 UNL1 0.000
    26 H      -6.371399    -0.092060     1.734235 H          1 UNL1 0.000
    27 H      -7.533535    -2.245000     1.745636 H          1 UNL1 0.000
    28 H      -4.257970    -4.034351    -0.404881 H          1 UNL1 0.000
    29 H      -3.115977    -1.882454    -0.464396 H          1 UNL1 0.000
    30 H      -6.099399     6.332146    -0.026709 H          1 UNL1 0.000
    31 H      -6.954566     5.875184     1.471296 H          1 UNL1 0.000
    32 H      -7.668093     5.516224    -0.108455 H          1 UNL1 0.000
    33 H      -6.150042    -5.385787     0.144595 H          1 UNL1 0.000
    34 H      -7.688361    -4.516056     0.205085 H          1 UNL1 0.000
    35 H      -6.843042    -4.953167     1.715732 H          1 UNL1 0.000
    36 H      -2.351873    -0.302444     2.556141 H          1 UNL1 0.000
    37 H       0.114418    -0.264232     2.561728 H          1 UNL1 0.000
    38 H       0.093595     1.296730    -1.458268 H          1 UNL1 0.000
    39 H      -2.372686     1.288116    -1.444881 H          1 UNL1 0.000
    40 C       1.755635     0.536893     0.551625 C          1 UNL1 0.000
    41 C       2.489634    -0.657653     0.534275 C          1 UNL1 0.000
    42 C       3.887540    -0.640772     0.534520 C          1 UNL1 0.000
    43 C       4.580899     0.573303     0.562316 C          1 UNL1 0.000
    44 C       3.855222     1.769376     0.574922 C          1 UNL1 0.000
    45 C       2.457779     1.750366     0.569019 C          1 UNL1 0.000
    46 C       6.080120     0.606398     0.553549 C          1 UNL1 0.000
    47 H       1.971303    -1.614163     0.510403 H          1 UNL1 0.000
    48 H       4.427651    -1.584422     0.512793 H          1 UNL1 0.000
    49 H       4.373524     2.725455     0.591581 H          1 UNL1 0.000
    50 H       1.914703     2.693136     0.587206 H          1 UNL1 0.000
    51 H       6.450405     1.227284     1.375858 H          1 UNL1 0.000
    52 H       6.441136     1.013600    -0.396112 H          1 UNL1 0.000
    53 H       6.503902    -0.395438     0.678617 H          1 UNL1 0.000
@<TRIPOS>BOND
     1      1      2   2
     2      2      3   1
     3      3      4   2
     4      4      5   1
     5      5      6   2
     6      6      1   1
     7      4      7   1
     8      7      8   1
     9      8      9   2
    10      9     10   1
    11     10     11   2
    12     11     12   1
    13     12     13   2
    14     13      8   1
    15      1     14   1
    16     11     15   1
    17     16     17   2
    18     17     18   1
    19     18     19   2
    20     19     20   1
    21     20     21   2
    22     21     16   1
    23      7     16   1
    24      2     22   1
    25      3     23   1
    26      5     24   1
    27      6     25   1
    28      9     26   1
    29     10     27   1
    30     12     28   1
    31     13     29   1
    32     14     30   1
    33     14     31   1
    34     14     32   1
    35     15     33   1
    36     15     34   1
    37     15     35   1
    38     17     36   1
    39     18     37   1
    40     20     38   1
    41     21     39   1
    42     40     41   2
    43     41     42   1
    44     42     43   2
    45     43     44   1
    46     44     45   2
    47     45     40   1
    48     43     46   1
    49     41     47   1
    50     42     48   1
    51     44     49   1
    52     45     50   1
    53     46     51   1
    54     46     52   1
    55     46     53   1
    56     19     40   1
