# Produced with molli package
@<TRIPOS>MOLECULE
C_1_M
51 54 0 0 0
SMALL
USER_CHARGES

@<TRIPOS>ATOM
     1 C      -5.889052     4.279084     0.413333 C          1 UNL1 0.000
     2 C      -6.518304     3.138605    -0.088649 C          1 UNL1 0.000
     3 C      -5.866288     1.896786    -0.071861 C          1 UNL1 0.000
     4 C      -4.589752     1.742445     0.493117 C          1 UNL1 0.000
     5 C      -3.951184     2.917802     0.938932 C          1 UNL1 0.000
     6 C      -4.586777     4.164332     0.899741 C          1 UNL1 0.000
     7 N      -3.931853     0.454387     0.604735 N          1 UNL1 0.000
     8 C      -4.626202    -0.816291     0.698191 C          1 UNL1 0.000
     9 C      -5.949148    -0.926263     1.157744 C          1 UNL1 0.000
    10 C      -6.632997    -2.150814     1.149224 C          1 UNL1 0.000
    11 C      -5.997248    -3.318562     0.723653 C          1 UNL1 0.000
    12 C      -4.652587    -3.251029     0.362154 C          1 UNL1 0.000
    13 C      -3.983677    -2.020632     0.343843 C          1 UNL1 0.000
    14 C      -6.587759     5.605034     0.450340 C          1 UNL1 0.000
    15 C      -6.735518    -4.623077     0.699193 C          1 UNL1 0.000
    16 C      -2.492775     0.440490     0.594361 C          1 UNL1 0.000
    17 C      -1.774927     0.288822     1.788748 C          1 UNL1 0.000
    18 C      -0.377461     0.296920     1.775887 C          1 UNL1 0.000
    19 C       0.327098     0.435448     0.570147 C          1 UNL1 0.000
    20 C      -0.397857     0.571475    -0.623634 C          1 UNL1 0.000
    21 C      -1.794556     0.584255    -0.612496 C          1 UNL1 0.000
    22 H      -7.525260     3.199731    -0.495382 H          1 UNL1 0.000
    23 H      -6.382178     1.050056    -0.516168 H          1 UNL1 0.000
    24 H      -2.946453     2.882656     1.351635 H          1 UNL1 0.000
    25 H      -4.058589     5.040173     1.269982 H          1 UNL1 0.000
    26 H      -6.479955    -0.058076     1.537941 H          1 UNL1 0.000
    27 H      -7.670660    -2.179817     1.474649 H          1 UNL1 0.000
    28 H      -4.112414    -4.149439     0.072347 H          1 UNL1 0.000
    29 H      -2.944921    -2.025190     0.024173 H          1 UNL1 0.000
    30 H      -6.020833     6.351078    -0.115199 H          1 UNL1 0.000
    31 H      -6.690537     5.942891     1.487252 H          1 UNL1 0.000
    32 H      -7.591650     5.543679     0.018051 H          1 UNL1 0.000
    33 H      -6.215092    -5.360610     0.078477 H          1 UNL1 0.000
    34 H      -7.734248    -4.488138     0.270200 H          1 UNL1 0.000
    35 H      -6.830083    -5.025018     1.712073 H          1 UNL1 0.000
    36 H      -2.308799     0.188182     2.730401 H          1 UNL1 0.000
    37 H       0.161542     0.202326     2.716354 H          1 UNL1 0.000
    38 H       0.124952     0.666765    -1.573134 H          1 UNL1 0.000
    39 H      -2.343771     0.688917    -1.544841 H          1 UNL1 0.000
    40 C       1.791573     0.444266     0.555456 C          1 UNL1 0.000
    41 C       2.516618    -0.755653     0.603024 C          1 UNL1 0.000
    42 C       3.914939    -0.747242     0.578064 C          1 UNL1 0.000
    43 C       4.607446     0.464993     0.508445 C          1 UNL1 0.000
    44 C       3.895825     1.667073     0.464354 C          1 UNL1 0.000
    45 C       2.497743     1.654756     0.486334 C          1 UNL1 0.000
    46 C       6.041926     0.475500     0.480392 C          1 UNL1 0.000
    47 N       7.200462     0.484381     0.456849 N          1 UNL1 0.000
    48 H       1.990124    -1.707432     0.653052 H          1 UNL1 0.000
    49 H       4.454597    -1.691901     0.611107 H          1 UNL1 0.000
    50 H       4.419991     2.619522     0.411639 H          1 UNL1 0.000
    51 H       1.955976     2.598701     0.451398 H          1 UNL1 0.000
@<TRIPOS>BOND
     1      1      2   2
     2      2      3   1
     3      3      4   2
     4      4      5   1
     5      5      6   2
     6      6      1   1
     7      4      7   1
     8      7      8   1
     9      8      9   2
    10      9     10   1
    11     10     11   2
    12     11     12   1
    13     12     13   2
    14     13      8   1
    15      1     14   1
    16     11     15   1
    17     16     17   2
    18     17     18   1
    19     18     19   2
    20     19     20   1
    21     20     21   2
    22     21     16   1
    23      7     16   1
    24      2     22   1
    25      3     23   1
    26      5     24   1
    27      6     25   1
    28      9     26   1
    29     10     27   1
    30     12     28   1
    31     13     29   1
    32     14     30   1
    33     14     31   1
    34     14     32   1
    35     15     33   1
    36     15     34   1
    37     15     35   1
    38     17     36   1
    39     18     37   1
    40     20     38   1
    41     21     39   1
    42     40     41   2
    43     41     42   1
    44     42     43   2
    45     43     44   1
    46     44     45   2
    47     45     40   1
    48     46     47   3
    49     43     46   1
    50     41     48   1
    51     42     49   1
    52     44     50   1
    53     45     51   1
    54     19     40   1
