# Produced with molli package
@<TRIPOS>MOLECULE
C_1_O
49 52 0 0 0
SMALL
USER_CHARGES

@<TRIPOS>ATOM
     1 C      -5.882918     4.377273     0.619632 C          1 UNL1 0.000
     2 C      -6.479963     3.259425     1.209552 C          1 UNL1 0.000
     3 C      -5.840351     2.013153     1.187281 C          1 UNL1 0.000
     4 C      -4.600085     1.840280     0.551575 C          1 UNL1 0.000
     5 C      -4.003430     2.982291    -0.016614 C          1 UNL1 0.000
     6 C      -4.635062     4.230547     0.012205 C          1 UNL1 0.000
     7 N      -3.940170     0.555233     0.491739 N          1 UNL1 0.000
     8 C      -4.650284    -0.703910     0.442672 C          1 UNL1 0.000
     9 C      -5.921535    -0.821959    -0.142927 C          1 UNL1 0.000
    10 C      -6.610600    -2.042348    -0.153054 C          1 UNL1 0.000
    11 C      -6.032948    -3.189821     0.395883 C          1 UNL1 0.000
    12 C      -4.755616    -3.098912     0.951810 C          1 UNL1 0.000
    13 C      -4.076137    -1.876152     0.971683 C          1 UNL1 0.000
    14 C      -6.587938     5.700646     0.621127 C          1 UNL1 0.000
    15 C      -6.769861    -4.495375     0.422824 C          1 UNL1 0.000
    16 C      -2.502563     0.528886     0.490689 C          1 UNL1 0.000
    17 C      -1.786000     0.892698     1.639046 C          1 UNL1 0.000
    18 C      -0.389549     0.847895     1.641844 C          1 UNL1 0.000
    19 C       0.320159     0.450094     0.497806 C          1 UNL1 0.000
    20 C      -0.404306     0.106408    -0.655228 C          1 UNL1 0.000
    21 C      -1.801304     0.136355    -0.657750 C          1 UNL1 0.000
    22 H      -7.449055     3.349072     1.695270 H          1 UNL1 0.000
    23 H      -6.323531     1.178060     1.687895 H          1 UNL1 0.000
    24 H      -3.038214     2.912065    -0.512745 H          1 UNL1 0.000
    25 H      -4.140500     5.081500    -0.450630 H          1 UNL1 0.000
    26 H      -6.393667     0.037334    -0.612362 H          1 UNL1 0.000
    27 H      -7.602528    -2.083874    -0.597201 H          1 UNL1 0.000
    28 H      -4.279427    -3.976522     1.383185 H          1 UNL1 0.000
    29 H      -3.091383    -1.850061     1.431606 H          1 UNL1 0.000
    30 H      -5.940151     6.500374     0.246612 H          1 UNL1 0.000
    31 H      -6.892197     5.969511     1.637642 H          1 UNL1 0.000
    32 H      -7.473931     5.653777    -0.020135 H          1 UNL1 0.000
    33 H      -6.144703    -5.294298     0.010847 H          1 UNL1 0.000
    34 H      -7.687371    -4.451125    -0.172711 H          1 UNL1 0.000
    35 H      -7.043202    -4.749063     1.452246 H          1 UNL1 0.000
    36 H      -2.318698     1.191890     2.538123 H          1 UNL1 0.000
    37 H       0.151547     1.122100     2.545470 H          1 UNL1 0.000
    38 H       0.121286    -0.172915    -1.565952 H          1 UNL1 0.000
    39 H      -2.346659    -0.123074    -1.561708 H          1 UNL1 0.000
    40 C       1.782880     0.388649     0.513373 C          1 UNL1 0.000
    41 N       2.424403     1.580977     0.576717 N          1 UNL1 0.000
    42 C       3.774737     1.557544     0.584657 C          1 UNL1 0.000
    43 C       4.527346     0.395760     0.548177 C          1 UNL1 0.000
    44 C       3.855638    -0.819446     0.496277 C          1 UNL1 0.000
    45 C       2.463934    -0.826498     0.473731 C          1 UNL1 0.000
    46 H       4.252233     2.532627     0.622239 H          1 UNL1 0.000
    47 H       5.610357     0.437473     0.561612 H          1 UNL1 0.000
    48 H       4.408943    -1.753713     0.474550 H          1 UNL1 0.000
    49 H       1.919417    -1.764843     0.438284 H          1 UNL1 0.000
@<TRIPOS>BOND
     1      1      2   2
     2      2      3   1
     3      3      4   2
     4      4      5   1
     5      5      6   2
     6      6      1   1
     7      4      7   1
     8      7      8   1
     9      8      9   2
    10      9     10   1
    11     10     11   2
    12     11     12   1
    13     12     13   2
    14     13      8   1
    15      1     14   1
    16     11     15   1
    17     16     17   2
    18     17     18   1
    19     18     19   2
    20     19     20   1
    21     20     21   2
    22     21     16   1
    23      7     16   1
    24      2     22   1
    25      3     23   1
    26      5     24   1
    27      6     25   1
    28      9     26   1
    29     10     27   1
    30     12     28   1
    31     13     29   1
    32     14     30   1
    33     14     31   1
    34     14     32   1
    35     15     33   1
    36     15     34   1
    37     15     35   1
    38     17     36   1
    39     18     37   1
    40     20     38   1
    41     21     39   1
    42     40     41   2
    43     41     42   1
    44     42     43   2
    45     43     44   1
    46     44     45   2
    47     45     40   1
    48     42     46   1
    49     43     47   1
    50     44     48   1
    51     45     49   1
    52     19     40   1
