# Produced with molli package
@<TRIPOS>MOLECULE
C_1_Q
48 51 0 0 0
SMALL
USER_CHARGES

@<TRIPOS>ATOM
     1 C      -5.935570     4.313720     0.758337 C          1 UNL1 0.000
     2 C      -6.611748     3.140785     1.102600 C          1 UNL1 0.000
     3 C      -5.964328     1.896148     1.051845 C          1 UNL1 0.000
     4 C      -4.635151     1.774858     0.616018 C          1 UNL1 0.000
     5 C      -3.966208     2.977504     0.300803 C          1 UNL1 0.000
     6 C      -4.598431     4.224261     0.377478 C          1 UNL1 0.000
     7 N      -3.948963     0.500418     0.521761 N          1 UNL1 0.000
     8 C      -4.603182    -0.790598     0.456560 C          1 UNL1 0.000
     9 C      -5.850976    -0.980586    -0.156738 C          1 UNL1 0.000
    10 C      -6.476893    -2.236926    -0.168036 C          1 UNL1 0.000
    11 C      -5.849707    -3.352719     0.392971 C          1 UNL1 0.000
    12 C      -4.588317    -3.193538     0.965459 C          1 UNL1 0.000
    13 C      -3.977279    -1.935821     0.992052 C          1 UNL1 0.000
    14 C      -6.631067     5.640412     0.822019 C          1 UNL1 0.000
    15 C      -6.526227    -4.690248     0.433725 C          1 UNL1 0.000
    16 C      -2.509631     0.506023     0.505583 C          1 UNL1 0.000
    17 C      -1.787910     0.729987     1.686173 C          1 UNL1 0.000
    18 C      -0.391040     0.715351     1.669222 C          1 UNL1 0.000
    19 C       0.311205     0.493496     0.472970 C          1 UNL1 0.000
    20 C      -0.420878     0.273471    -0.705041 C          1 UNL1 0.000
    21 C      -1.817802     0.275768    -0.690675 C          1 UNL1 0.000
    22 H      -7.651000     3.183955     1.421624 H          1 UNL1 0.000
    23 H      -6.525655     1.026414     1.379924 H          1 UNL1 0.000
    24 H      -2.927959     2.969105    -0.021198 H          1 UNL1 0.000
    25 H      -4.031653     5.118649     0.129080 H          1 UNL1 0.000
    26 H      -6.355416    -0.154572    -0.650506 H          1 UNL1 0.000
    27 H      -7.459172    -2.333260    -0.625248 H          1 UNL1 0.000
    28 H      -4.069199    -4.042951     1.403912 H          1 UNL1 0.000
    29 H      -2.999244    -1.865704     1.461493 H          1 UNL1 0.000
    30 H      -5.995871     6.444579     0.434860 H          1 UNL1 0.000
    31 H      -6.890158     5.882448     1.857313 H          1 UNL1 0.000
    32 H      -7.542590     5.619834     0.215961 H          1 UNL1 0.000
    33 H      -5.815071    -5.488984     0.197225 H          1 UNL1 0.000
    34 H      -7.340273    -4.748705    -0.295548 H          1 UNL1 0.000
    35 H      -6.939632    -4.867873     1.431877 H          1 UNL1 0.000
    36 H      -2.318953     0.886333     2.621756 H          1 UNL1 0.000
    37 H       0.147173     0.854482     2.604836 H          1 UNL1 0.000
    38 H       0.100434     0.096072    -1.643876 H          1 UNL1 0.000
    39 H      -2.369930     0.108605    -1.612058 H          1 UNL1 0.000
    40 C       1.773845     0.481166     0.451286 C          1 UNL1 0.000
    41 N       2.362309    -0.701144     0.140281 N          1 UNL1 0.000
    42 C       3.715805    -0.706002     0.145710 C          1 UNL1 0.000
    43 C       4.462357     0.423969     0.433587 C          1 UNL1 0.000
    44 N       3.893372     1.611546     0.732317 N          1 UNL1 0.000
    45 C       2.536165     1.612555     0.736108 C          1 UNL1 0.000
    46 H       4.186948    -1.653388    -0.086842 H          1 UNL1 0.000
    47 H       5.546467     0.401756     0.431452 H          1 UNL1 0.000
    48 H       2.071801     2.564394     0.969135 H          1 UNL1 0.000
@<TRIPOS>BOND
     1      1      2   2
     2      2      3   1
     3      3      4   2
     4      4      5   1
     5      5      6   2
     6      6      1   1
     7      4      7   1
     8      7      8   1
     9      8      9   2
    10      9     10   1
    11     10     11   2
    12     11     12   1
    13     12     13   2
    14     13      8   1
    15      1     14   1
    16     11     15   1
    17     16     17   2
    18     17     18   1
    19     18     19   2
    20     19     20   1
    21     20     21   2
    22     21     16   1
    23      7     16   1
    24      2     22   1
    25      3     23   1
    26      5     24   1
    27      6     25   1
    28      9     26   1
    29     10     27   1
    30     12     28   1
    31     13     29   1
    32     14     30   1
    33     14     31   1
    34     14     32   1
    35     15     33   1
    36     15     34   1
    37     15     35   1
    38     17     36   1
    39     18     37   1
    40     20     38   1
    41     21     39   1
    42     40     41   2
    43     41     42   1
    44     42     43   2
    45     43     44   1
    46     44     45   2
    47     45     40   1
    48     42     46   1
    49     43     47   1
    50     45     48   1
    51     19     40   1
