# Produced with molli package
@<TRIPOS>MOLECULE
C_1_N
47 50 0 0 0
SMALL
USER_CHARGES

@<TRIPOS>ATOM
     1 C      -5.969973     4.251760     0.718565 C          1 UNL1 0.000
     2 C      -6.523165     3.122092     1.328657 C          1 UNL1 0.000
     3 C      -5.866531     1.886632     1.270478 C          1 UNL1 0.000
     4 C      -4.644882     1.742523     0.592842 C          1 UNL1 0.000
     5 C      -4.084884     2.897077     0.014930 C          1 UNL1 0.000
     6 C      -4.735925     4.133731     0.076270 C          1 UNL1 0.000
     7 N      -3.967215     0.469767     0.505444 N          1 UNL1 0.000
     8 C      -4.667657    -0.791117     0.418248 C          1 UNL1 0.000
     9 C      -5.929388    -0.897377    -0.191169 C          1 UNL1 0.000
    10 C      -6.614635    -2.118096    -0.242294 C          1 UNL1 0.000
    11 C      -6.044808    -3.275418     0.293391 C          1 UNL1 0.000
    12 C      -4.778802    -3.193677     0.877594 C          1 UNL1 0.000
    13 C      -4.100363    -1.971254     0.934006 C          1 UNL1 0.000
    14 C      -6.674551     5.573365     0.792406 C          1 UNL1 0.000
    15 C      -6.779411    -4.582514     0.275914 C          1 UNL1 0.000
    16 C      -2.529836     0.463380     0.524442 C          1 UNL1 0.000
    17 C      -1.837430     0.807458     1.695470 C          1 UNL1 0.000
    18 C      -0.440575     0.804030     1.715820 C          1 UNL1 0.000
    19 C       0.273934     0.474501     0.560355 C          1 UNL1 0.000
    20 C      -0.409110     0.139330    -0.613613 C          1 UNL1 0.000
    21 C      -1.806387     0.122556    -0.627821 C          1 UNL1 0.000
    22 H      -7.471075     3.193872     1.857403 H          1 UNL1 0.000
    23 H      -6.316493     1.037001     1.777956 H          1 UNL1 0.000
    24 H      -3.136186     2.843941    -0.513533 H          1 UNL1 0.000
    25 H      -4.270243     4.998786    -0.390198 H          1 UNL1 0.000
    26 H      -6.395146    -0.027331    -0.647140 H          1 UNL1 0.000
    27 H      -7.597261    -2.152068    -0.707412 H          1 UNL1 0.000
    28 H      -4.311069    -4.079236     1.301998 H          1 UNL1 0.000
    29 H      -3.124679    -1.951941     1.413283 H          1 UNL1 0.000
    30 H      -6.243321     6.294806     0.090167 H          1 UNL1 0.000
    31 H      -6.595129     5.986238     1.802662 H          1 UNL1 0.000
    32 H      -7.731869     5.456679     0.532669 H          1 UNL1 0.000
    33 H      -6.143472    -5.371361    -0.138843 H          1 UNL1 0.000
    34 H      -7.682991    -4.526847    -0.339805 H          1 UNL1 0.000
    35 H      -7.076206    -4.858510     1.292961 H          1 UNL1 0.000
    36 H      -2.390634     1.059361     2.596419 H          1 UNL1 0.000
    37 H       0.081174     1.055452     2.636026 H          1 UNL1 0.000
    38 H       0.137708    -0.100093    -1.522072 H          1 UNL1 0.000
    39 H      -2.334952    -0.129369    -1.543658 H          1 UNL1 0.000
    40 C       1.725221     0.498498     0.576436 C          1 UNL1 0.000
    41 C       2.461785    -0.663250     0.672129 C          1 UNL1 0.000
    42 S       4.147684    -0.362077     0.677370 S          1 UNL1 0.000
    43 C       3.902221     1.326361     0.551954 C          1 UNL1 0.000
    44 C       2.563671     1.653396     0.511358 C          1 UNL1 0.000
    45 H       2.097710    -1.680173     0.744193 H          1 UNL1 0.000
    46 H       4.748826     1.997520     0.514855 H          1 UNL1 0.000
    47 H       2.203216     2.671329     0.432327 H          1 UNL1 0.000
@<TRIPOS>BOND
     1      1      2   2
     2      2      3   1
     3      3      4   2
     4      4      5   1
     5      5      6   2
     6      6      1   1
     7      4      7   1
     8      7      8   1
     9      8      9   2
    10      9     10   1
    11     10     11   2
    12     11     12   1
    13     12     13   2
    14     13      8   1
    15      1     14   1
    16     11     15   1
    17     16     17   2
    18     17     18   1
    19     18     19   2
    20     19     20   1
    21     20     21   2
    22     21     16   1
    23      7     16   1
    24      2     22   1
    25      3     23   1
    26      5     24   1
    27      6     25   1
    28      9     26   1
    29     10     27   1
    30     12     28   1
    31     13     29   1
    32     14     30   1
    33     14     31   1
    34     14     32   1
    35     15     33   1
    36     15     34   1
    37     15     35   1
    38     17     36   1
    39     18     37   1
    40     20     38   1
    41     21     39   1
    42     40     41   2
    43     41     42   1
    44     42     43   1
    45     43     44   2
    46     44     40   1
    47     41     45   1
    48     43     46   1
    49     44     47   1
    50     19     40   1
