# Produced with molli package
@<TRIPOS>MOLECULE
C_1_L
54 58 0 0 0
SMALL
USER_CHARGES

@<TRIPOS>ATOM
     1 C      -5.941586     4.310410     0.660584 C          1 UNL1 0.000
     2 C      -6.567468     3.164054     1.156892 C          1 UNL1 0.000
     3 C      -5.907972     1.927141     1.144353 C          1 UNL1 0.000
     4 C      -4.617424     1.789158     0.607287 C          1 UNL1 0.000
     5 C      -3.986599     2.966400     0.157645 C          1 UNL1 0.000
     6 C      -4.634537     4.206811     0.185121 C          1 UNL1 0.000
     7 N      -3.942742     0.509838     0.532898 N          1 UNL1 0.000
     8 C      -4.629283    -0.760220     0.427722 C          1 UNL1 0.000
     9 C      -5.889302    -0.884985    -0.180503 C          1 UNL1 0.000
    10 C      -6.561162    -2.114403    -0.228589 C          1 UNL1 0.000
    11 C      -5.972512    -3.267447     0.295355 C          1 UNL1 0.000
    12 C      -4.699609    -3.173223     0.860057 C          1 UNL1 0.000
    13 C      -4.039646    -1.940628     0.921306 C          1 UNL1 0.000
    14 C      -6.657236     5.627841     0.665692 C          1 UNL1 0.000
    15 C      -6.696662    -4.580361     0.292953 C          1 UNL1 0.000
    16 C      -2.504759     0.501113     0.535879 C          1 UNL1 0.000
    17 C      -1.796587     0.730061     1.723492 C          1 UNL1 0.000
    18 C      -0.399452     0.728838     1.721325 C          1 UNL1 0.000
    19 C       0.315083     0.519620     0.531877 C          1 UNL1 0.000
    20 C      -0.400441     0.296128    -0.654491 C          1 UNL1 0.000
    21 C      -1.796977     0.276003    -0.652691 C          1 UNL1 0.000
    22 H      -7.576758     3.222136     1.558386 H          1 UNL1 0.000
    23 H      -6.422496     1.071182     1.572923 H          1 UNL1 0.000
    24 H      -2.977032     2.936416    -0.244449 H          1 UNL1 0.000
    25 H      -4.106994     5.084637    -0.180912 H          1 UNL1 0.000
    26 H      -6.369324    -0.023712    -0.637649 H          1 UNL1 0.000
    27 H      -7.549009    -2.157986    -0.681594 H          1 UNL1 0.000
    28 H      -4.211809    -4.055645     1.268123 H          1 UNL1 0.000
    29 H      -3.057459    -1.916314     1.386558 H          1 UNL1 0.000
    30 H      -6.095993     6.389811     0.114164 H          1 UNL1 0.000
    31 H      -6.794391     5.980321     1.692367 H          1 UNL1 0.000
    32 H      -7.635474     5.528881     0.183615 H          1 UNL1 0.000
    33 H      -6.050048    -5.373332    -0.096691 H          1 UNL1 0.000
    34 H      -7.591973    -4.543685    -0.335983 H          1 UNL1 0.000
    35 H      -7.004643    -4.837968     1.311631 H          1 UNL1 0.000
    36 H      -2.337015     0.893005     2.652408 H          1 UNL1 0.000
    37 H       0.133610     0.890288     2.656079 H          1 UNL1 0.000
    38 H       0.131624     0.148101    -1.592023 H          1 UNL1 0.000
    39 H      -2.337662     0.112866    -1.581428 H          1 UNL1 0.000
    40 C       1.780642     0.542083     0.524698 C          1 UNL1 0.000
    41 C       2.511148    -0.650951     0.432805 C          1 UNL1 0.000
    42 C       3.911103    -0.660012     0.415657 C          1 UNL1 0.000
    43 C       4.565201     0.573538     0.487738 C          1 UNL1 0.000
    44 C       3.879731     1.784268     0.579311 C          1 UNL1 0.000
    45 C       2.471231     1.765914     0.601766 C          1 UNL1 0.000
    46 N       5.909522     0.869733     0.485178 N          1 UNL1 0.000
    47 C       6.096985     2.223975     0.566534 C          1 UNL1 0.000
    48 C       4.856262     2.816980     0.627311 C          1 UNL1 0.000
    49 H       1.982208    -1.601334     0.377198 H          1 UNL1 0.000
    50 H       4.459690    -1.593477     0.346542 H          1 UNL1 0.000
    51 H       1.921893     2.701440     0.667811 H          1 UNL1 0.000
    52 H       6.647367     0.180965     0.427508 H          1 UNL1 0.000
    53 H       7.091993     2.647425     0.573765 H          1 UNL1 0.000
    54 H       4.667409     3.880026     0.696739 H          1 UNL1 0.000
@<TRIPOS>BOND
     1      1      2   2
     2      2      3   1
     3      3      4   2
     4      4      5   1
     5      5      6   2
     6      6      1   1
     7      4      7   1
     8      7      8   1
     9      8      9   2
    10      9     10   1
    11     10     11   2
    12     11     12   1
    13     12     13   2
    14     13      8   1
    15      1     14   1
    16     11     15   1
    17     16     17   2
    18     17     18   1
    19     18     19   2
    20     19     20   1
    21     20     21   2
    22     21     16   1
    23      7     16   1
    24      2     22   1
    25      3     23   1
    26      5     24   1
    27      6     25   1
    28      9     26   1
    29     10     27   1
    30     12     28   1
    31     13     29   1
    32     14     30   1
    33     14     31   1
    34     14     32   1
    35     15     33   1
    36     15     34   1
    37     15     35   1
    38     17     36   1
    39     18     37   1
    40     20     38   1
    41     21     39   1
    42     40     41   2
    43     41     42   1
    44     42     43   2
    45     43     44   1
    46     44     45   2
    47     45     40   1
    48     43     46   1
    49     46     47   1
    50     47     48   2
    51     48     44   1
    52     41     49   1
    53     42     50   1
    54     45     51   1
    55     46     52   1
    56     47     53   1
    57     48     54   1
    58     19     40   1
