# Produced with molli package
@<TRIPOS>MOLECULE
C_1_P
54 57 0 0 0
SMALL
USER_CHARGES

@<TRIPOS>ATOM
     1 C      -5.835821     4.259756     0.152086 C          1 UNL1 0.000
     2 C      -6.446346     3.103125    -0.339378 C          1 UNL1 0.000
     3 C      -5.796520     1.864119    -0.258429 C          1 UNL1 0.000
     4 C      -4.532788     1.737938     0.341600 C          1 UNL1 0.000
     5 C      -3.928142     2.916935     0.818979 C          1 UNL1 0.000
     6 C      -4.569566     4.157193     0.730522 C          1 UNL1 0.000
     7 N      -3.859704     0.462627     0.451361 N          1 UNL1 0.000
     8 C      -4.558339    -0.797841     0.552603 C          1 UNL1 0.000
     9 C      -5.793034    -0.912716     1.211425 C          1 UNL1 0.000
    10 C      -6.471162    -2.136620     1.277665 C          1 UNL1 0.000
    11 C      -5.918819    -3.288287     0.709200 C          1 UNL1 0.000
    12 C      -4.680685    -3.196126     0.071358 C          1 UNL1 0.000
    13 C      -4.008468    -1.971018     0.002096 C          1 UNL1 0.000
    14 C      -6.532275     5.586658     0.101595 C          1 UNL1 0.000
    15 C      -6.668986    -4.586277     0.743940 C          1 UNL1 0.000
    16 C      -2.422889     0.446075     0.467389 C          1 UNL1 0.000
    17 C      -1.731761     0.156111     1.651724 C          1 UNL1 0.000
    18 C      -0.335380     0.175246     1.675060 C          1 UNL1 0.000
    19 C       0.396919     0.461374     0.512899 C          1 UNL1 0.000
    20 C      -0.299942     0.730984    -0.674593 C          1 UNL1 0.000
    21 C      -1.696582     0.734537    -0.696219 C          1 UNL1 0.000
    22 H      -7.432439     3.152721    -0.795331 H          1 UNL1 0.000
    23 H      -6.292172     0.996634    -0.686892 H          1 UNL1 0.000
    24 H      -2.948663     2.884949     1.289513 H          1 UNL1 0.000
    25 H      -4.070645     5.040272     1.123659 H          1 UNL1 0.000
    26 H      -6.240642    -0.047776     1.694686 H          1 UNL1 0.000
    27 H      -7.434794    -2.181772     1.780023 H          1 UNL1 0.000
    28 H      -4.226616    -4.073243    -0.384142 H          1 UNL1 0.000
    29 H      -3.052565    -1.941796    -0.514759 H          1 UNL1 0.000
    30 H      -5.853497     6.360571    -0.271881 H          1 UNL1 0.000
    31 H      -6.877387     5.866122     1.102192 H          1 UNL1 0.000
    32 H      -7.399037     5.558516    -0.566557 H          1 UNL1 0.000
    33 H      -6.011144    -5.432301     0.518131 H          1 UNL1 0.000
    34 H      -7.476635    -4.571004     0.005292 H          1 UNL1 0.000
    35 H      -7.094409    -4.758330     1.737842 H          1 UNL1 0.000
    36 H      -2.285285    -0.054495     2.563366 H          1 UNL1 0.000
    37 H       0.182962    -0.022654     2.611240 H          1 UNL1 0.000
    38 H       0.246029     0.942476    -1.591618 H          1 UNL1 0.000
    39 H      -2.223334     0.947320    -1.623102 H          1 UNL1 0.000
    40 C       1.860243     0.493724     0.543955 C          1 UNL1 0.000
    41 C       2.607302    -0.693694     0.486191 C          1 UNL1 0.000
    42 C       4.003310    -0.659720     0.524367 C          1 UNL1 0.000
    43 C       4.660131     0.565402     0.610087 C          1 UNL1 0.000
    44 C       3.937905     1.751987     0.694535 C          1 UNL1 0.000
    45 C       2.543155     1.715933     0.649978 C          1 UNL1 0.000
    46 O       6.023949     0.628711     0.691440 O          1 UNL1 0.000
    47 C       6.611300     0.383533    -0.586223 C          1 UNL1 0.000
    48 H       2.099124    -1.653310     0.417212 H          1 UNL1 0.000
    49 H       4.568742    -1.586466     0.500783 H          1 UNL1 0.000
    50 H       4.457226     2.700377     0.793992 H          1 UNL1 0.000
    51 H       1.984876     2.648038     0.711653 H          1 UNL1 0.000
    52 H       7.688997     0.549475    -0.495695 H          1 UNL1 0.000
    53 H       6.224227     1.078302    -1.340326 H          1 UNL1 0.000
    54 H       6.454630    -0.652580    -0.904007 H          1 UNL1 0.000
@<TRIPOS>BOND
     1      1      2   2
     2      2      3   1
     3      3      4   2
     4      4      5   1
     5      5      6   2
     6      6      1   1
     7      4      7   1
     8      7      8   1
     9      8      9   2
    10      9     10   1
    11     10     11   2
    12     11     12   1
    13     12     13   2
    14     13      8   1
    15      1     14   1
    16     11     15   1
    17     16     17   2
    18     17     18   1
    19     18     19   2
    20     19     20   1
    21     20     21   2
    22     21     16   1
    23      7     16   1
    24      2     22   1
    25      3     23   1
    26      5     24   1
    27      6     25   1
    28      9     26   1
    29     10     27   1
    30     12     28   1
    31     13     29   1
    32     14     30   1
    33     14     31   1
    34     14     32   1
    35     15     33   1
    36     15     34   1
    37     15     35   1
    38     17     36   1
    39     18     37   1
    40     20     38   1
    41     21     39   1
    42     40     41   2
    43     41     42   1
    44     42     43   2
    45     43     44   1
    46     44     45   2
    47     45     40   1
    48     46     47   1
    49     43     46   1
    50     41     48   1
    51     42     49   1
    52     44     50   1
    53     45     51   1
    54     47     52   1
    55     47     53   1
    56     47     54   1
    57     19     40   1
