# Produced with molli package
@<TRIPOS>MOLECULE
C_1_K
52 55 0 0 0
SMALL
USER_CHARGES

@<TRIPOS>ATOM
     1 C      -5.899355     4.287189     0.344283 C          1 UNL1 0.000
     2 C      -6.490236     3.159265    -0.230291 C          1 UNL1 0.000
     3 C      -5.835501     1.920737    -0.205102 C          1 UNL1 0.000
     4 C      -4.587979     1.764763     0.421700 C          1 UNL1 0.000
     5 C      -3.995512     2.918391     0.969574 C          1 UNL1 0.000
     6 C      -4.641882     4.158864     0.937371 C          1 UNL1 0.000
     7 N      -3.923081     0.482796     0.495124 N          1 UNL1 0.000
     8 C      -4.629905    -0.776284     0.579027 C          1 UNL1 0.000
     9 C      -5.896340    -0.881485     1.177932 C          1 UNL1 0.000
    10 C      -6.584243    -2.101161     1.222463 C          1 UNL1 0.000
    11 C      -6.017395    -3.257723     0.681210 C          1 UNL1 0.000
    12 C      -4.735585    -3.183933     0.133757 C          1 UNL1 0.000
    13 C      -4.055970    -1.961644     0.080844 C          1 UNL1 0.000
    14 C      -6.606829     5.609121     0.365750 C          1 UNL1 0.000
    15 C      -6.745394    -4.567052     0.743831 C          1 UNL1 0.000
    16 C      -2.486482     0.461106     0.509616 C          1 UNL1 0.000
    17 C      -1.794471     0.183516     1.696250 C          1 UNL1 0.000
    18 C      -0.397835     0.178750     1.712723 C          1 UNL1 0.000
    19 C       0.332719     0.426666     0.540862 C          1 UNL1 0.000
    20 C      -0.364907     0.689977    -0.647444 C          1 UNL1 0.000
    21 C      -1.761817     0.719270    -0.661816 C          1 UNL1 0.000
    22 H      -7.466616     3.230245    -0.704212 H          1 UNL1 0.000
    23 H      -6.315842     1.075795    -0.692203 H          1 UNL1 0.000
    24 H      -3.026035     2.864019     1.457960 H          1 UNL1 0.000
    25 H      -4.156758     5.020870     1.389911 H          1 UNL1 0.000
    26 H      -6.363779    -0.013230     1.635406 H          1 UNL1 0.000
    27 H      -7.567814    -2.137041     1.685584 H          1 UNL1 0.000
    28 H      -4.254633    -4.073720    -0.266219 H          1 UNL1 0.000
    29 H      -3.070074    -1.949200    -0.376789 H          1 UNL1 0.000
    30 H      -5.940237     6.405021     0.017952 H          1 UNL1 0.000
    31 H      -6.937721     5.838638     1.383906 H          1 UNL1 0.000
    32 H      -7.485761     5.604302    -0.286887 H          1 UNL1 0.000
    33 H      -6.428727    -5.230239    -0.068421 H          1 UNL1 0.000
    34 H      -7.824699    -4.416708     0.635576 H          1 UNL1 0.000
    35 H      -6.548268    -5.061769     1.699564 H          1 UNL1 0.000
    36 H      -2.347933    -0.005349     2.612745 H          1 UNL1 0.000
    37 H       0.119908    -0.015791     2.649721 H          1 UNL1 0.000
    38 H       0.178242     0.872981    -1.572297 H          1 UNL1 0.000
    39 H      -2.290220     0.922428    -1.589997 H          1 UNL1 0.000
    40 C       1.796593     0.414193     0.561509 C          1 UNL1 0.000
    41 C       2.517058     1.609074     0.726533 C          1 UNL1 0.000
    42 C       3.913904     1.603373     0.762275 C          1 UNL1 0.000
    43 C       4.596140     0.389798     0.623731 C          1 UNL1 0.000
    44 C       3.899640    -0.811299     0.451634 C          1 UNL1 0.000
    45 C       2.502591    -0.792754     0.424935 C          1 UNL1 0.000
    46 N       6.058462     0.376597     0.662525 N          1 UNL1 0.000
    47 O       6.624375     1.302952     1.259521 O          1 UNL1 0.000
    48 O       6.638225    -0.561178     0.096268 O          1 UNL1 0.000
    49 H       1.984760     2.553312     0.833750 H          1 UNL1 0.000
    50 H       4.449303     2.541078     0.894585 H          1 UNL1 0.000
    51 H       4.424052    -1.758483     0.344865 H          1 UNL1 0.000
    52 H       1.959151    -1.727917     0.296479 H          1 UNL1 0.000
@<TRIPOS>BOND
     1      1      2   2
     2      2      3   1
     3      3      4   2
     4      4      5   1
     5      5      6   2
     6      6      1   1
     7      4      7   1
     8      7      8   1
     9      8      9   2
    10      9     10   1
    11     10     11   2
    12     11     12   1
    13     12     13   2
    14     13      8   1
    15      1     14   1
    16     11     15   1
    17     16     17   2
    18     17     18   1
    19     18     19   2
    20     19     20   1
    21     20     21   2
    22     21     16   1
    23      7     16   1
    24      2     22   1
    25      3     23   1
    26      5     24   1
    27      6     25   1
    28      9     26   1
    29     10     27   1
    30     12     28   1
    31     13     29   1
    32     14     30   1
    33     14     31   1
    34     14     32   1
    35     15     33   1
    36     15     34   1
    37     15     35   1
    38     17     36   1
    39     18     37   1
    40     20     38   1
    41     21     39   1
    42     40     41   2
    43     41     42   1
    44     42     43   2
    45     43     44   1
    46     44     45   2
    47     45     40   1
    48     46     47   2
    49     46     48   1
    50     43     46   1
    51     41     49   1
    52     42     50   1
    53     44     51   1
    54     45     52   1
    55     19     40   1
