# Produced with molli package
@<TRIPOS>MOLECULE
C_2_S
55 58 0 0 0
SMALL
USER_CHARGES

@<TRIPOS>ATOM
     1 C      -3.864280     4.393127     2.075996 C          1 UNL1 0.000
     2 C      -4.516637     3.225279     2.477535 C          1 UNL1 0.000
     3 C      -3.853888     1.987849     2.454028 C          1 UNL1 0.000
     4 C      -2.533634     1.868955     1.993226 C          1 UNL1 0.000
     5 C      -1.869771     3.076550     1.691174 C          1 UNL1 0.000
     6 C      -2.520831     4.314492     1.719583 C          1 UNL1 0.000
     7 N      -1.858770     0.592406     1.841595 N          1 UNL1 0.000
     8 C      -2.527929    -0.691621     1.747141 C          1 UNL1 0.000
     9 C      -3.810727    -0.841764     1.196969 C          1 UNL1 0.000
    10 C      -4.456472    -2.087614     1.165133 C          1 UNL1 0.000
    11 C      -3.814871    -3.235790     1.634723 C          1 UNL1 0.000
    12 C      -2.516325    -3.119349     2.129921 C          1 UNL1 0.000
    13 C      -1.886804    -1.870059     2.183338 C          1 UNL1 0.000
    14 C      -4.587979     5.705452     2.055088 C          1 UNL1 0.000
    15 C      -4.504633    -4.567281     1.646264 C          1 UNL1 0.000
    16 C      -0.412666     0.591107     1.773016 C          1 UNL1 0.000
    17 C       0.310764     0.718500     2.977023 C          1 UNL1 0.000
    18 C       1.703046     0.692994     2.975685 C          1 UNL1 0.000
    19 C       2.389656     0.549843     1.773860 C          1 UNL1 0.000
    20 C       1.686210     0.438330     0.570942 C          1 UNL1 0.000
    21 C       0.279346     0.459901     0.541491 C          1 UNL1 0.000
    22 H      -5.553411     3.264305     2.804574 H          1 UNL1 0.000
    23 H      -4.400384     1.119457     2.809718 H          1 UNL1 0.000
    24 H      -0.824462     3.079017     1.395656 H          1 UNL1 0.000
    25 H      -1.966770     5.207937     1.441235 H          1 UNL1 0.000
    26 H      -4.331172     0.009921     0.767748 H          1 UNL1 0.000
    27 H      -5.466546    -2.147283     0.765878 H          1 UNL1 0.000
    28 H      -1.984105    -3.996585     2.491145 H          1 UNL1 0.000
    29 H      -0.881880    -1.835526     2.595427 H          1 UNL1 0.000
    30 H      -3.991333     6.481484     1.562879 H          1 UNL1 0.000
    31 H      -4.806396     6.035812     3.074582 H          1 UNL1 0.000
    32 H      -5.524325     5.611737     1.494997 H          1 UNL1 0.000
    33 H      -3.862659    -5.334509     1.200946 H          1 UNL1 0.000
    34 H      -5.437099    -4.542040     1.073376 H          1 UNL1 0.000
    35 H      -4.743382    -4.855396     2.675421 H          1 UNL1 0.000
    36 H      -0.227154     0.823087     3.916709 H          1 UNL1 0.000
    37 H       2.248896     0.783987     3.911043 H          1 UNL1 0.000
    38 H       3.476751     0.534896     1.768410 H          1 UNL1 0.000
    39 H       2.245258     0.350611    -0.359110 H          1 UNL1 0.000
    40 C      -0.405648     0.409175    -0.761438 C          1 UNL1 0.000
    41 C      -0.884917     1.582039    -1.362467 C          1 UNL1 0.000
    42 C      -1.532047     1.549238    -2.599508 C          1 UNL1 0.000
    43 C      -1.697834     0.339169    -3.279837 C          1 UNL1 0.000
    44 C      -1.196538    -0.835378    -2.707522 C          1 UNL1 0.000
    45 C      -0.562584    -0.798136    -1.456370 C          1 UNL1 0.000
    46 C      -2.394033     0.371915    -4.600255 C          1 UNL1 0.000
    47 C      -2.774605    -0.914590    -5.282292 C          1 UNL1 0.000
    48 O      -2.633917     1.455696    -5.135948 O          1 UNL1 0.000
    49 H      -0.757998     2.542756    -0.871663 H          1 UNL1 0.000
    50 H      -1.904301     2.479027    -3.026356 H          1 UNL1 0.000
    51 H      -1.276611    -1.794445    -3.208915 H          1 UNL1 0.000
    52 H      -0.191922    -1.724062    -1.020187 H          1 UNL1 0.000
    53 H      -3.694252    -0.748524    -5.852760 H          1 UNL1 0.000
    54 H      -2.987565    -1.712967    -4.569534 H          1 UNL1 0.000
    55 H      -1.975275    -1.214942    -5.964102 H          1 UNL1 0.000
@<TRIPOS>BOND
     1      1      2   2
     2      2      3   1
     3      3      4   2
     4      4      5   1
     5      5      6   2
     6      6      1   1
     7      4      7   1
     8      7      8   1
     9      8      9   2
    10      9     10   1
    11     10     11   2
    12     11     12   1
    13     12     13   2
    14     13      8   1
    15      1     14   1
    16     11     15   1
    17     16     17   2
    18     17     18   1
    19     18     19   2
    20     19     20   1
    21     20     21   2
    22     21     16   1
    23      7     16   1
    24      2     22   1
    25      3     23   1
    26      5     24   1
    27      6     25   1
    28      9     26   1
    29     10     27   1
    30     12     28   1
    31     13     29   1
    32     14     30   1
    33     14     31   1
    34     14     32   1
    35     15     33   1
    36     15     34   1
    37     15     35   1
    38     17     36   1
    39     18     37   1
    40     19     38   1
    41     20     39   1
    42     40     41   2
    43     41     42   1
    44     42     43   2
    45     43     44   1
    46     44     45   2
    47     45     40   1
    48     43     46   1
    49     46     47   1
    50     46     48   2
    51     41     49   1
    52     42     50   1
    53     44     51   1
    54     45     52   1
    55     47     53   1
    56     47     54   1
    57     47     55   1
    58     21     40   1
