# Produced with molli package
@<TRIPOS>MOLECULE
C_2_T
53 56 0 0 0
SMALL
USER_CHARGES

@<TRIPOS>ATOM
     1 C      -3.772426     4.316504     1.620712 C          1 UNL1 0.000
     2 C      -4.356315     3.190587     1.034802 C          1 UNL1 0.000
     3 C      -3.701011     1.952127     1.062499 C          1 UNL1 0.000
     4 C      -2.457950     1.794225     1.697769 C          1 UNL1 0.000
     5 C      -1.874648     2.945380     2.260679 C          1 UNL1 0.000
     6 C      -2.521766     4.185720     2.227118 C          1 UNL1 0.000
     7 N      -1.774462     0.518805     1.731459 N          1 UNL1 0.000
     8 C      -2.460168    -0.751478     1.842011 C          1 UNL1 0.000
     9 C      -3.739378    -0.863905     2.411963 C          1 UNL1 0.000
    10 C      -4.413291    -2.091911     2.466724 C          1 UNL1 0.000
    11 C      -3.817594    -3.253552     1.969305 C          1 UNL1 0.000
    12 C      -2.522865    -3.174684     1.458603 C          1 UNL1 0.000
    13 C      -1.856302    -1.945262     1.403327 C          1 UNL1 0.000
    14 C      -4.464140     5.646894     1.612387 C          1 UNL1 0.000
    15 C      -4.547191    -4.562012     2.018253 C          1 UNL1 0.000
    16 C      -0.330896     0.526745     1.660852 C          1 UNL1 0.000
    17 C       0.396305     0.399305     2.862004 C          1 UNL1 0.000
    18 C       1.789108     0.433562     2.859255 C          1 UNL1 0.000
    19 C       2.474231     0.581307     1.657354 C          1 UNL1 0.000
    20 C       1.768208     0.682219     0.455821 C          1 UNL1 0.000
    21 C       0.361073     0.652716     0.429229 C          1 UNL1 0.000
    22 H      -5.323085     3.263948     0.542491 H          1 UNL1 0.000
    23 H      -4.165629     1.110907     0.553514 H          1 UNL1 0.000
    24 H      -0.906339     2.892896     2.750137 H          1 UNL1 0.000
    25 H      -2.038550     5.047567     2.682239 H          1 UNL1 0.000
    26 H      -4.233430     0.006022     2.836702 H          1 UNL1 0.000
    27 H      -5.409856    -2.130043     2.900401 H          1 UNL1 0.000
    28 H      -2.018459    -4.063792     1.087461 H          1 UNL1 0.000
    29 H      -0.854088    -1.938667     0.986885 H          1 UNL1 0.000
    30 H      -3.825023     6.403346     1.145330 H          1 UNL1 0.000
    31 H      -4.695780     5.956145     2.636904 H          1 UNL1 0.000
    32 H      -5.402955     5.609174     1.050540 H          1 UNL1 0.000
    33 H      -4.029402    -5.329567     1.432914 H          1 UNL1 0.000
    34 H      -5.551993    -4.452451     1.597134 H          1 UNL1 0.000
    35 H      -4.624708    -4.912815     3.051680 H          1 UNL1 0.000
    36 H      -0.139031     0.288689     3.802268 H          1 UNL1 0.000
    37 H       2.336518     0.346906     3.793976 H          1 UNL1 0.000
    38 H       3.560935     0.607386     1.650153 H          1 UNL1 0.000
    39 H       2.323030     0.775003    -0.476385 H          1 UNL1 0.000
    40 C      -0.323809     0.668411    -0.873871 C          1 UNL1 0.000
    41 C      -0.911867     1.832850    -1.382675 C          1 UNL1 0.000
    42 C      -1.573034     1.822635    -2.616012 C          1 UNL1 0.000
    43 C      -1.648046     0.648653    -3.373096 C          1 UNL1 0.000
    44 C      -1.052358    -0.514926    -2.878587 C          1 UNL1 0.000
    45 C      -0.392128    -0.501198    -1.647907 C          1 UNL1 0.000
    46 C      -2.377042     0.614408    -4.682834 C          1 UNL1 0.000
    47 H      -0.873231     2.756904    -0.809952 H          1 UNL1 0.000
    48 H      -2.034382     2.740041    -2.973338 H          1 UNL1 0.000
    49 H      -1.103972    -1.442472    -3.443823 H          1 UNL1 0.000
    50 H       0.060786    -1.420765    -1.284323 H          1 UNL1 0.000
    51 H      -3.273592    -0.008004    -4.596980 H          1 UNL1 0.000
    52 H      -1.730198     0.205504    -5.466033 H          1 UNL1 0.000
    53 H      -2.686316     1.616440    -4.996862 H          1 UNL1 0.000
@<TRIPOS>BOND
     1      1      2   2
     2      2      3   1
     3      3      4   2
     4      4      5   1
     5      5      6   2
     6      6      1   1
     7      4      7   1
     8      7      8   1
     9      8      9   2
    10      9     10   1
    11     10     11   2
    12     11     12   1
    13     12     13   2
    14     13      8   1
    15      1     14   1
    16     11     15   1
    17     16     17   2
    18     17     18   1
    19     18     19   2
    20     19     20   1
    21     20     21   2
    22     21     16   1
    23      7     16   1
    24      2     22   1
    25      3     23   1
    26      5     24   1
    27      6     25   1
    28      9     26   1
    29     10     27   1
    30     12     28   1
    31     13     29   1
    32     14     30   1
    33     14     31   1
    34     14     32   1
    35     15     33   1
    36     15     34   1
    37     15     35   1
    38     17     36   1
    39     18     37   1
    40     19     38   1
    41     20     39   1
    42     40     41   2
    43     41     42   1
    44     42     43   2
    45     43     44   1
    46     44     45   2
    47     45     40   1
    48     43     46   1
    49     41     47   1
    50     42     48   1
    51     44     49   1
    52     45     50   1
    53     46     51   1
    54     46     52   1
    55     46     53   1
    56     21     40   1
