# Produced with molli package
@<TRIPOS>MOLECULE
C_2_M
51 54 0 0 0
SMALL
USER_CHARGES

@<TRIPOS>ATOM
     1 C      -3.802269     4.295080     2.040674 C          1 UNL1 0.000
     2 C      -4.494128     3.125489     2.358966 C          1 UNL1 0.000
     3 C      -3.843734     1.881210     2.351652 C          1 UNL1 0.000
     4 C      -2.497337     1.752746     1.976218 C          1 UNL1 0.000
     5 C      -1.801226     2.961035     1.756096 C          1 UNL1 0.000
     6 C      -2.437108     4.207979     1.783031 C          1 UNL1 0.000
     7 N      -1.827615     0.470423     1.832767 N          1 UNL1 0.000
     8 C      -2.497543    -0.815803     1.771567 C          1 UNL1 0.000
     9 C      -3.773499    -0.984652     1.211702 C          1 UNL1 0.000
    10 C      -4.433991    -2.222625     1.244211 C          1 UNL1 0.000
    11 C      -3.808917    -3.350397     1.780120 C          1 UNL1 0.000
    12 C      -2.509128    -3.223058     2.268603 C          1 UNL1 0.000
    13 C      -1.866721    -1.978952     2.260342 C          1 UNL1 0.000
    14 C      -4.507285     5.617320     2.016156 C          1 UNL1 0.000
    15 C      -4.527131    -4.662607     1.885565 C          1 UNL1 0.000
    16 C      -0.382699     0.462318     1.739991 C          1 UNL1 0.000
    17 C       0.367105     0.541687     2.931899 C          1 UNL1 0.000
    18 C       1.759522     0.514076     2.899316 C          1 UNL1 0.000
    19 C       2.420440     0.418524     1.678533 C          1 UNL1 0.000
    20 C       1.690888     0.356989     0.488378 C          1 UNL1 0.000
    21 C       0.283655     0.381167     0.491357 C          1 UNL1 0.000
    22 H      -5.551724     3.167645     2.610720 H          1 UNL1 0.000
    23 H      -4.427476     1.017377     2.653145 H          1 UNL1 0.000
    24 H      -0.737493     2.960367     1.534635 H          1 UNL1 0.000
    25 H      -1.852395     5.102778     1.582799 H          1 UNL1 0.000
    26 H      -4.280375    -0.153237     0.730003 H          1 UNL1 0.000
    27 H      -5.443976    -2.292286     0.846174 H          1 UNL1 0.000
    28 H      -1.987411    -4.085701     2.677245 H          1 UNL1 0.000
    29 H      -0.862854    -1.935977     2.673388 H          1 UNL1 0.000
    30 H      -3.888313     6.388848     1.545106 H          1 UNL1 0.000
    31 H      -4.746047     5.939638     3.033668 H          1 UNL1 0.000
    32 H      -5.431505     5.543384     1.433215 H          1 UNL1 0.000
    33 H      -3.867379    -5.488295     1.599216 H          1 UNL1 0.000
    34 H      -5.400747    -4.694771     1.226780 H          1 UNL1 0.000
    35 H      -4.865250    -4.819240     2.915368 H          1 UNL1 0.000
    36 H      -0.149894     0.611289     3.886399 H          1 UNL1 0.000
    37 H       2.326091     0.565862     3.825320 H          1 UNL1 0.000
    38 H       3.507110     0.400274     1.648528 H          1 UNL1 0.000
    39 H       2.228827     0.302829    -0.456676 H          1 UNL1 0.000
    40 C      -0.426446     0.378142    -0.797514 C          1 UNL1 0.000
    41 C      -0.857581     1.581972    -1.378681 C          1 UNL1 0.000
    42 C      -1.504992     1.596029    -2.616623 C          1 UNL1 0.000
    43 C      -1.717182     0.400594    -3.305110 C          1 UNL1 0.000
    44 C      -1.287676    -0.805875    -2.743885 C          1 UNL1 0.000
    45 C      -0.649027    -0.815585    -1.498375 C          1 UNL1 0.000
    46 C      -2.361341     0.416519    -4.585071 C          1 UNL1 0.000
    47 N      -2.876716     0.436616    -5.625583 N          1 UNL1 0.000
    48 H      -0.687274     2.526357    -0.867473 H          1 UNL1 0.000
    49 H      -1.833940     2.545459    -3.034549 H          1 UNL1 0.000
    50 H      -1.444166    -1.745888    -3.268998 H          1 UNL1 0.000
    51 H      -0.324957    -1.763353    -1.072469 H          1 UNL1 0.000
@<TRIPOS>BOND
     1      1      2   2
     2      2      3   1
     3      3      4   2
     4      4      5   1
     5      5      6   2
     6      6      1   1
     7      4      7   1
     8      7      8   1
     9      8      9   2
    10      9     10   1
    11     10     11   2
    12     11     12   1
    13     12     13   2
    14     13      8   1
    15      1     14   1
    16     11     15   1
    17     16     17   2
    18     17     18   1
    19     18     19   2
    20     19     20   1
    21     20     21   2
    22     21     16   1
    23      7     16   1
    24      2     22   1
    25      3     23   1
    26      5     24   1
    27      6     25   1
    28      9     26   1
    29     10     27   1
    30     12     28   1
    31     13     29   1
    32     14     30   1
    33     14     31   1
    34     14     32   1
    35     15     33   1
    36     15     34   1
    37     15     35   1
    38     17     36   1
    39     18     37   1
    40     19     38   1
    41     20     39   1
    42     40     41   2
    43     41     42   1
    44     42     43   2
    45     43     44   1
    46     44     45   2
    47     45     40   1
    48     46     47   3
    49     43     46   1
    50     41     48   1
    51     42     49   1
    52     44     50   1
    53     45     51   1
    54     21     40   1
