# Produced with molli package
@<TRIPOS>MOLECULE
C_2_Q
48 51 0 0 0
SMALL
USER_CHARGES

@<TRIPOS>ATOM
     1 C      -3.673263     4.197109     1.547065 C          1 UNL1 0.000
     2 C      -4.245539     3.071828     0.948348 C          1 UNL1 0.000
     3 C      -3.596999     1.831509     0.998022 C          1 UNL1 0.000
     4 C      -2.372885     1.673801     1.668197 C          1 UNL1 0.000
     5 C      -1.799816     2.821493     2.246286 C          1 UNL1 0.000
     6 C      -2.442485     4.063084     2.193552 C          1 UNL1 0.000
     7 N      -1.705915     0.393796     1.738099 N          1 UNL1 0.000
     8 C      -2.414868    -0.862037     1.846746 C          1 UNL1 0.000
     9 C      -3.678900    -0.950810     2.454260 C          1 UNL1 0.000
    10 C      -4.373628    -2.165836     2.521380 C          1 UNL1 0.000
    11 C      -3.816153    -3.334375     1.995582 C          1 UNL1 0.000
    12 C      -2.541479    -3.274380     1.431959 C          1 UNL1 0.000
    13 C      -1.853229    -2.058010     1.363094 C          1 UNL1 0.000
    14 C      -4.372652     5.523609     1.532942 C          1 UNL1 0.000
    15 C      -4.568742    -4.629140     2.060517 C          1 UNL1 0.000
    16 C      -0.262698     0.376589     1.694902 C          1 UNL1 0.000
    17 C       0.442693     0.185446     2.899646 C          1 UNL1 0.000
    18 C       1.835538     0.217886     2.921183 C          1 UNL1 0.000
    19 C       2.541420     0.425251     1.739937 C          1 UNL1 0.000
    20 C       1.855758     0.591039     0.533699 C          1 UNL1 0.000
    21 C       0.448893     0.568726     0.485873 C          1 UNL1 0.000
    22 H      -5.199594     3.147577     0.431816 H          1 UNL1 0.000
    23 H      -4.054353     0.986772     0.488408 H          1 UNL1 0.000
    24 H      -0.851660     2.760842     2.773582 H          1 UNL1 0.000
    25 H      -1.975669     4.922769     2.669204 H          1 UNL1 0.000
    26 H      -4.140071    -0.071872     2.897150 H          1 UNL1 0.000
    27 H      -5.355986    -2.189317     2.987478 H          1 UNL1 0.000
    28 H      -2.070502    -4.166786     1.026681 H          1 UNL1 0.000
    29 H      -0.875162    -2.057666     0.887959 H          1 UNL1 0.000
    30 H      -3.686506     6.313486     1.210132 H          1 UNL1 0.000
    31 H      -4.745482     5.760497     2.534713 H          1 UNL1 0.000
    32 H      -5.222599     5.521624     0.842872 H          1 UNL1 0.000
    33 H      -4.066626    -5.412982     1.483332 H          1 UNL1 0.000
    34 H      -5.572759    -4.505152     1.641574 H          1 UNL1 0.000
    35 H      -4.649305    -4.967443     3.097981 H          1 UNL1 0.000
    36 H      -0.108221     0.029228     3.824336 H          1 UNL1 0.000
    37 H       2.367303     0.079847     3.858994 H          1 UNL1 0.000
    38 H       3.628447     0.442251     1.752272 H          1 UNL1 0.000
    39 H       2.427841     0.715897    -0.384253 H          1 UNL1 0.000
    40 C      -0.228118     0.677529    -0.808203 C          1 UNL1 0.000
    41 N      -0.649738    -0.489302    -1.363688 N          1 UNL1 0.000
    42 C      -1.278993    -0.384728    -2.555108 C          1 UNL1 0.000
    43 C      -1.450030     0.827269    -3.200306 C          1 UNL1 0.000
    44 N      -1.007800     1.993631    -2.681054 N          1 UNL1 0.000
    45 C      -0.404571     1.890381    -1.468529 C          1 UNL1 0.000
    46 H      -1.645608    -1.311892    -2.979726 H          1 UNL1 0.000
    47 H      -1.951296     0.891086    -4.159204 H          1 UNL1 0.000
    48 H      -0.061328     2.824152    -1.037108 H          1 UNL1 0.000
@<TRIPOS>BOND
     1      1      2   2
     2      2      3   1
     3      3      4   2
     4      4      5   1
     5      5      6   2
     6      6      1   1
     7      4      7   1
     8      7      8   1
     9      8      9   2
    10      9     10   1
    11     10     11   2
    12     11     12   1
    13     12     13   2
    14     13      8   1
    15      1     14   1
    16     11     15   1
    17     16     17   2
    18     17     18   1
    19     18     19   2
    20     19     20   1
    21     20     21   2
    22     21     16   1
    23      7     16   1
    24      2     22   1
    25      3     23   1
    26      5     24   1
    27      6     25   1
    28      9     26   1
    29     10     27   1
    30     12     28   1
    31     13     29   1
    32     14     30   1
    33     14     31   1
    34     14     32   1
    35     15     33   1
    36     15     34   1
    37     15     35   1
    38     17     36   1
    39     18     37   1
    40     19     38   1
    41     20     39   1
    42     40     41   2
    43     41     42   1
    44     42     43   2
    45     43     44   1
    46     44     45   2
    47     45     40   1
    48     42     46   1
    49     43     47   1
    50     45     48   1
    51     21     40   1
