# Produced with molli package
@<TRIPOS>MOLECULE
C_2_O
49 52 0 0 0
SMALL
USER_CHARGES

@<TRIPOS>ATOM
     1 C      -3.777091     4.224311     1.560802 C          1 UNL1 0.000
     2 C      -4.329165     3.104548     0.932895 C          1 UNL1 0.000
     3 C      -3.671102     1.869394     0.974661 C          1 UNL1 0.000
     4 C      -2.456311     1.712863     1.662173 C          1 UNL1 0.000
     5 C      -1.902262     2.854202     2.268739 C          1 UNL1 0.000
     6 C      -2.556451     4.090087     2.227177 C          1 UNL1 0.000
     7 N      -1.784660     0.436354     1.725119 N          1 UNL1 0.000
     8 C      -2.493474    -0.817354     1.847557 C          1 UNL1 0.000
     9 C      -3.745904    -0.900164     2.480192 C          1 UNL1 0.000
    10 C      -4.438470    -2.114330     2.573338 C          1 UNL1 0.000
    11 C      -3.893872    -3.285755     2.041109 C          1 UNL1 0.000
    12 C      -2.630027    -3.230593     1.451577 C          1 UNL1 0.000
    13 C      -1.943186    -2.015130     1.357227 C          1 UNL1 0.000
    14 C      -4.490826     5.543162     1.561373 C          1 UNL1 0.000
    15 C      -4.628281    -4.587734     2.152259 C          1 UNL1 0.000
    16 C      -0.342005     0.420980     1.671178 C          1 UNL1 0.000
    17 C       0.373091     0.223190     2.869215 C          1 UNL1 0.000
    18 C       1.766628     0.249765     2.880015 C          1 UNL1 0.000
    19 C       2.463975     0.458267     1.693857 C          1 UNL1 0.000
    20 C       1.768908     0.629893     0.494403 C          1 UNL1 0.000
    21 C       0.361487     0.612967     0.457443 C          1 UNL1 0.000
    22 H      -5.275767     3.179568     0.402967 H          1 UNL1 0.000
    23 H      -4.110609     1.025665     0.447456 H          1 UNL1 0.000
    24 H      -0.962594     2.789598     2.810542 H          1 UNL1 0.000
    25 H      -2.107236     4.944334     2.728781 H          1 UNL1 0.000
    26 H      -4.196408    -0.016995     2.925616 H          1 UNL1 0.000
    27 H      -5.408022    -2.134035     3.065406 H          1 UNL1 0.000
    28 H      -2.167423    -4.127396     1.046312 H          1 UNL1 0.000
    29 H      -0.975913    -2.015840     0.859997 H          1 UNL1 0.000
    30 H      -3.804508     6.348985     1.281139 H          1 UNL1 0.000
    31 H      -4.896451     5.748417     2.557328 H          1 UNL1 0.000
    32 H      -5.318987     5.550856     0.845336 H          1 UNL1 0.000
    33 H      -4.294976    -5.294572     1.384760 H          1 UNL1 0.000
    34 H      -5.703565    -4.438050     2.009110 H          1 UNL1 0.000
    35 H      -4.456776    -5.033126     3.136782 H          1 UNL1 0.000
    36 H      -0.170767     0.063666     3.797379 H          1 UNL1 0.000
    37 H       2.305210     0.104995     3.812557 H          1 UNL1 0.000
    38 H       3.550962     0.470480     1.696431 H          1 UNL1 0.000
    39 H       2.330112     0.755422    -0.429903 H          1 UNL1 0.000
    40 C      -0.321769     0.723119    -0.834976 C          1 UNL1 0.000
    41 N      -0.667110    -0.455528    -1.414361 N          1 UNL1 0.000
    42 C      -1.308008    -0.401368    -2.600004 C          1 UNL1 0.000
    43 C      -1.595327     0.776747    -3.266871 C          1 UNL1 0.000
    44 C      -1.207669     1.974579    -2.677565 C          1 UNL1 0.000
    45 C      -0.563494     1.951773    -1.443303 C          1 UNL1 0.000
    46 H      -1.594581    -1.364259    -3.013006 H          1 UNL1 0.000
    47 H      -2.109525     0.760309    -4.220481 H          1 UNL1 0.000
    48 H      -1.412299     2.920224    -3.170497 H          1 UNL1 0.000
    49 H      -0.266255     2.876118    -0.959037 H          1 UNL1 0.000
@<TRIPOS>BOND
     1      1      2   2
     2      2      3   1
     3      3      4   2
     4      4      5   1
     5      5      6   2
     6      6      1   1
     7      4      7   1
     8      7      8   1
     9      8      9   2
    10      9     10   1
    11     10     11   2
    12     11     12   1
    13     12     13   2
    14     13      8   1
    15      1     14   1
    16     11     15   1
    17     16     17   2
    18     17     18   1
    19     18     19   2
    20     19     20   1
    21     20     21   2
    22     21     16   1
    23      7     16   1
    24      2     22   1
    25      3     23   1
    26      5     24   1
    27      6     25   1
    28      9     26   1
    29     10     27   1
    30     12     28   1
    31     13     29   1
    32     14     30   1
    33     14     31   1
    34     14     32   1
    35     15     33   1
    36     15     34   1
    37     15     35   1
    38     17     36   1
    39     18     37   1
    40     19     38   1
    41     20     39   1
    42     40     41   2
    43     41     42   1
    44     42     43   2
    45     43     44   1
    46     44     45   2
    47     45     40   1
    48     42     46   1
    49     43     47   1
    50     44     48   1
    51     45     49   1
    52     21     40   1
