# Produced with molli package
@<TRIPOS>MOLECULE
C_2_N
47 50 0 0 0
SMALL
USER_CHARGES

@<TRIPOS>ATOM
     1 C      -3.854080     4.178595     1.617312 C          1 UNL1 0.000
     2 C      -4.378570     3.053982     0.974829 C          1 UNL1 0.000
     3 C      -3.702594     1.827814     1.020398 C          1 UNL1 0.000
     4 C      -2.492912     1.685861     1.719896 C          1 UNL1 0.000
     5 C      -1.958410     2.838409     2.325168 C          1 UNL1 0.000
     6 C      -2.628254     4.065794     2.276812 C          1 UNL1 0.000
     7 N      -1.797020     0.420238     1.788071 N          1 UNL1 0.000
     8 C      -2.474459    -0.853627     1.899757 C          1 UNL1 0.000
     9 C      -3.770586    -0.965562     2.430583 C          1 UNL1 0.000
    10 C      -4.433874    -2.198515     2.491264 C          1 UNL1 0.000
    11 C      -3.812310    -3.363997     2.036813 C          1 UNL1 0.000
    12 C      -2.502976    -3.283383     1.563378 C          1 UNL1 0.000
    13 C      -1.846629    -2.048900     1.500137 C          1 UNL1 0.000
    14 C      -4.564553     5.498564     1.576404 C          1 UNL1 0.000
    15 C      -4.526531    -4.680381     2.101258 C          1 UNL1 0.000
    16 C      -0.355132     0.443140     1.750802 C          1 UNL1 0.000
    17 C       0.355220     0.263630     2.953542 C          1 UNL1 0.000
    18 C       1.749131     0.313511     2.972316 C          1 UNL1 0.000
    19 C       2.453368     0.528921     1.789780 C          1 UNL1 0.000
    20 C       1.766819     0.686952     0.584182 C          1 UNL1 0.000
    21 C       0.364695     0.642750     0.551084 C          1 UNL1 0.000
    22 H      -5.317251     3.118437     0.429506 H          1 UNL1 0.000
    23 H      -4.123783     0.982876     0.480681 H          1 UNL1 0.000
    24 H      -1.016182     2.793245     2.864248 H          1 UNL1 0.000
    25 H      -2.185552     4.930640     2.766011 H          1 UNL1 0.000
    26 H      -4.286159    -0.091542     2.819899 H          1 UNL1 0.000
    27 H      -5.442649    -2.237456     2.896030 H          1 UNL1 0.000
    28 H      -1.980060    -4.176204     1.228413 H          1 UNL1 0.000
    29 H      -0.832958    -2.039813     1.110647 H          1 UNL1 0.000
    30 H      -4.027927     6.195267     0.924955 H          1 UNL1 0.000
    31 H      -4.629124     5.926196     2.582748 H          1 UNL1 0.000
    32 H      -5.586909     5.391583     1.199496 H          1 UNL1 0.000
    33 H      -4.023443    -5.435874     1.488156 H          1 UNL1 0.000
    34 H      -5.547991    -4.579409     1.719792 H          1 UNL1 0.000
    35 H      -4.561354    -5.040153     3.133921 H          1 UNL1 0.000
    36 H      -0.191312     0.102618     3.880067 H          1 UNL1 0.000
    37 H       2.283527     0.187193     3.910408 H          1 UNL1 0.000
    38 H       3.539829     0.566643     1.803307 H          1 UNL1 0.000
    39 H       2.330606     0.836381    -0.334326 H          1 UNL1 0.000
    40 C      -0.297961     0.748832    -0.741642 C          1 UNL1 0.000
    41 C      -0.521390    -0.369413    -1.521266 C          1 UNL1 0.000
    42 S      -1.311730     0.008448    -2.991032 S          1 UNL1 0.000
    43 C      -1.343401     1.674529    -2.606441 C          1 UNL1 0.000
    44 C      -0.767044     1.935799    -1.382373 C          1 UNL1 0.000
    45 H      -0.269759    -1.397501    -1.300299 H          1 UNL1 0.000
    46 H      -1.785803     2.380975    -3.294468 H          1 UNL1 0.000
    47 H      -0.699005     2.929877    -0.957897 H          1 UNL1 0.000
@<TRIPOS>BOND
     1      1      2   2
     2      2      3   1
     3      3      4   2
     4      4      5   1
     5      5      6   2
     6      6      1   1
     7      4      7   1
     8      7      8   1
     9      8      9   2
    10      9     10   1
    11     10     11   2
    12     11     12   1
    13     12     13   2
    14     13      8   1
    15      1     14   1
    16     11     15   1
    17     16     17   2
    18     17     18   1
    19     18     19   2
    20     19     20   1
    21     20     21   2
    22     21     16   1
    23      7     16   1
    24      2     22   1
    25      3     23   1
    26      5     24   1
    27      6     25   1
    28      9     26   1
    29     10     27   1
    30     12     28   1
    31     13     29   1
    32     14     30   1
    33     14     31   1
    34     14     32   1
    35     15     33   1
    36     15     34   1
    37     15     35   1
    38     17     36   1
    39     18     37   1
    40     19     38   1
    41     20     39   1
    42     40     41   2
    43     41     42   1
    44     42     43   1
    45     43     44   2
    46     44     40   1
    47     41     45   1
    48     43     46   1
    49     44     47   1
    50     21     40   1
