# Produced with molli package
@<TRIPOS>MOLECULE
C_2_P
54 57 0 0 0
SMALL
USER_CHARGES

@<TRIPOS>ATOM
     1 C      -3.729964     4.292497     1.633379 C          1 UNL1 0.000
     2 C      -4.304847     3.178852     1.015398 C          1 UNL1 0.000
     3 C      -3.671563     1.929590     1.064444 C          1 UNL1 0.000
     4 C      -2.465103     1.747280     1.760120 C          1 UNL1 0.000
     5 C      -1.892684     2.884234     2.361676 C          1 UNL1 0.000
     6 C      -2.517054     4.135369     2.306458 C          1 UNL1 0.000
     7 N      -1.801845     0.462407     1.820612 N          1 UNL1 0.000
     8 C      -2.504738    -0.801090     1.909970 C          1 UNL1 0.000
     9 C      -3.823529    -0.894310     2.385167 C          1 UNL1 0.000
    10 C      -4.512785    -2.115295     2.405925 C          1 UNL1 0.000
    11 C      -3.890985    -3.291932     1.981742 C          1 UNL1 0.000
    12 C      -2.563775    -3.231487     1.560943 C          1 UNL1 0.000
    13 C      -1.882167    -2.009295     1.540252 C          1 UNL1 0.000
    14 C      -4.415222     5.626287     1.619953 C          1 UNL1 0.000
    15 C      -4.649297    -4.584536     1.953562 C          1 UNL1 0.000
    16 C      -0.358152     0.455841     1.747139 C          1 UNL1 0.000
    17 C       0.372407     0.331810     2.945910 C          1 UNL1 0.000
    18 C       1.765462     0.345193     2.934797 C          1 UNL1 0.000
    19 C       2.446219     0.469196     1.727288 C          1 UNL1 0.000
    20 C       1.735878     0.568218     0.527912 C          1 UNL1 0.000
    21 C       0.328989     0.559021     0.510263 C          1 UNL1 0.000
    22 H      -5.247220     3.271165     0.480405 H          1 UNL1 0.000
    23 H      -4.123511     1.099983     0.525767 H          1 UNL1 0.000
    24 H      -0.953183     2.809982     2.901891 H          1 UNL1 0.000
    25 H      -2.046389     4.983988     2.797925 H          1 UNL1 0.000
    26 H      -4.342628    -0.014425     2.755291 H          1 UNL1 0.000
    27 H      -5.543223    -2.135324     2.753334 H          1 UNL1 0.000
    28 H      -2.044475    -4.129296     1.234163 H          1 UNL1 0.000
    29 H      -0.850730    -2.021877     1.202209 H          1 UNL1 0.000
    30 H      -3.692749     6.427721     1.432286 H          1 UNL1 0.000
    31 H      -4.903598     5.805464     2.583128 H          1 UNL1 0.000
    32 H      -5.172964     5.677504     0.831443 H          1 UNL1 0.000
    33 H      -3.988688    -5.431430     1.739066 H          1 UNL1 0.000
    34 H      -5.418467    -4.549814     1.175282 H          1 UNL1 0.000
    35 H      -5.123530    -4.770934     2.922077 H          1 UNL1 0.000
    36 H      -0.159783     0.237518     3.889713 H          1 UNL1 0.000
    37 H       2.316788     0.259437     3.867370 H          1 UNL1 0.000
    38 H       3.533221     0.477307     1.714686 H          1 UNL1 0.000
    39 H       2.287138     0.640752    -0.407977 H          1 UNL1 0.000
    40 C      -0.367350     0.569714    -0.786655 C          1 UNL1 0.000
    41 C      -0.883501     1.753926    -1.333537 C          1 UNL1 0.000
    42 C      -1.565897     1.738813    -2.554291 C          1 UNL1 0.000
    43 C      -1.719744     0.538636    -3.244361 C          1 UNL1 0.000
    44 C      -1.223295    -0.648194    -2.718452 C          1 UNL1 0.000
    45 C      -0.535487    -0.627706    -1.504770 C          1 UNL1 0.000
    46 O      -2.425423     0.482656    -4.414797 O          1 UNL1 0.000
    47 C      -1.641353     0.993564    -5.491812 C          1 UNL1 0.000
    48 H      -0.780002     2.692707    -0.793529 H          1 UNL1 0.000
    49 H      -1.991094     2.657045    -2.946886 H          1 UNL1 0.000
    50 H      -1.373553    -1.585443    -3.245376 H          1 UNL1 0.000
    51 H      -0.146972    -1.561553    -1.105686 H          1 UNL1 0.000
    52 H      -2.171911     0.775545    -6.423631 H          1 UNL1 0.000
    53 H      -0.660456     0.506646    -5.540808 H          1 UNL1 0.000
    54 H      -1.526590     2.079417    -5.412530 H          1 UNL1 0.000
@<TRIPOS>BOND
     1      1      2   2
     2      2      3   1
     3      3      4   2
     4      4      5   1
     5      5      6   2
     6      6      1   1
     7      4      7   1
     8      7      8   1
     9      8      9   2
    10      9     10   1
    11     10     11   2
    12     11     12   1
    13     12     13   2
    14     13      8   1
    15      1     14   1
    16     11     15   1
    17     16     17   2
    18     17     18   1
    19     18     19   2
    20     19     20   1
    21     20     21   2
    22     21     16   1
    23      7     16   1
    24      2     22   1
    25      3     23   1
    26      5     24   1
    27      6     25   1
    28      9     26   1
    29     10     27   1
    30     12     28   1
    31     13     29   1
    32     14     30   1
    33     14     31   1
    34     14     32   1
    35     15     33   1
    36     15     34   1
    37     15     35   1
    38     17     36   1
    39     18     37   1
    40     19     38   1
    41     20     39   1
    42     40     41   2
    43     41     42   1
    44     42     43   2
    45     43     44   1
    46     44     45   2
    47     45     40   1
    48     46     47   1
    49     43     46   1
    50     41     48   1
    51     42     49   1
    52     44     50   1
    53     45     51   1
    54     47     52   1
    55     47     53   1
    56     47     54   1
    57     21     40   1
