# Produced with molli package
@<TRIPOS>MOLECULE
C_2_K
52 55 0 0 0
SMALL
USER_CHARGES

@<TRIPOS>ATOM
     1 C      -3.991085     4.207086     2.230100 C          1 UNL1 0.000
     2 C      -4.587869     2.993531     2.578154 C          1 UNL1 0.000
     3 C      -3.873533     1.790674     2.481124 C          1 UNL1 0.000
     4 C      -2.549965     1.756062     2.012347 C          1 UNL1 0.000
     5 C      -1.946612     3.000818     1.742412 C          1 UNL1 0.000
     6 C      -2.652792     4.204968     1.841434 C          1 UNL1 0.000
     7 N      -1.820309     0.517242     1.828561 N          1 UNL1 0.000
     8 C      -2.451772    -0.781636     1.734585 C          1 UNL1 0.000
     9 C      -3.667764    -0.973044     1.059009 C          1 UNL1 0.000
    10 C      -4.288958    -2.229075     1.016694 C          1 UNL1 0.000
    11 C      -3.696505    -3.336741     1.628839 C          1 UNL1 0.000
    12 C      -2.457774    -3.176464     2.252321 C          1 UNL1 0.000
    13 C      -1.845996    -1.919214     2.301764 C          1 UNL1 0.000
    14 C      -4.761298     5.489668     2.322566 C          1 UNL1 0.000
    15 C      -4.354548    -4.684296     1.609124 C          1 UNL1 0.000
    16 C      -0.376725     0.559922     1.764881 C          1 UNL1 0.000
    17 C       0.343020     0.721783     2.966282 C          1 UNL1 0.000
    18 C       1.735934     0.723342     2.966639 C          1 UNL1 0.000
    19 C       2.427321     0.575500     1.768283 C          1 UNL1 0.000
    20 C       1.727556     0.434139     0.566985 C          1 UNL1 0.000
    21 C       0.320329     0.427382     0.537219 C          1 UNL1 0.000
    22 H      -5.618510     2.969987     2.925517 H          1 UNL1 0.000
    23 H      -4.378005     0.879898     2.791505 H          1 UNL1 0.000
    24 H      -0.908443     3.059119     1.427723 H          1 UNL1 0.000
    25 H      -2.145163     5.136123     1.600477 H          1 UNL1 0.000
    26 H      -4.145644    -0.142495     0.545399 H          1 UNL1 0.000
    27 H      -5.242208    -2.329232     0.502498 H          1 UNL1 0.000
    28 H      -1.962350    -4.025874     2.717538 H          1 UNL1 0.000
    29 H      -0.893574    -1.839570     2.818605 H          1 UNL1 0.000
    30 H      -4.265853     6.290455     1.762820 H          1 UNL1 0.000
    31 H      -4.851900     5.801234     3.367257 H          1 UNL1 0.000
    32 H      -5.761613     5.366244     1.894422 H          1 UNL1 0.000
    33 H      -3.775820    -5.378679     0.992106 H          1 UNL1 0.000
    34 H      -5.370158    -4.629822     1.204019 H          1 UNL1 0.000
    35 H      -4.426789    -5.083931     2.626539 H          1 UNL1 0.000
    36 H      -0.197019     0.826323     3.904757 H          1 UNL1 0.000
    37 H       2.278870     0.835644     3.901410 H          1 UNL1 0.000
    38 H       3.514581     0.578003     1.764494 H          1 UNL1 0.000
    39 H       2.289722     0.341638    -0.360796 H          1 UNL1 0.000
    40 C      -0.362510     0.340402    -0.764895 C          1 UNL1 0.000
    41 C      -0.911004     1.491180    -1.362004 C          1 UNL1 0.000
    42 C      -1.552220     1.429660    -2.599936 C          1 UNL1 0.000
    43 C      -1.620617     0.202837    -3.261211 C          1 UNL1 0.000
    44 C      -1.070467    -0.955546    -2.705002 C          1 UNL1 0.000
    45 C      -0.449277    -0.881126    -1.454555 C          1 UNL1 0.000
    46 N      -2.267980     0.136266    -4.563519 N          1 UNL1 0.000
    47 O      -1.727539    -0.565977    -5.430820 O          1 UNL1 0.000
    48 O      -3.307457     0.790149    -4.717948 O          1 UNL1 0.000
    49 H      -0.837910     2.452890    -0.860579 H          1 UNL1 0.000
    50 H      -1.976997     2.331737    -3.033451 H          1 UNL1 0.000
    51 H      -1.125442    -1.908964    -3.224659 H          1 UNL1 0.000
    52 H      -0.034332    -1.784424    -1.010722 H          1 UNL1 0.000
@<TRIPOS>BOND
     1      1      2   2
     2      2      3   1
     3      3      4   2
     4      4      5   1
     5      5      6   2
     6      6      1   1
     7      4      7   1
     8      7      8   1
     9      8      9   2
    10      9     10   1
    11     10     11   2
    12     11     12   1
    13     12     13   2
    14     13      8   1
    15      1     14   1
    16     11     15   1
    17     16     17   2
    18     17     18   1
    19     18     19   2
    20     19     20   1
    21     20     21   2
    22     21     16   1
    23      7     16   1
    24      2     22   1
    25      3     23   1
    26      5     24   1
    27      6     25   1
    28      9     26   1
    29     10     27   1
    30     12     28   1
    31     13     29   1
    32     14     30   1
    33     14     31   1
    34     14     32   1
    35     15     33   1
    36     15     34   1
    37     15     35   1
    38     17     36   1
    39     18     37   1
    40     19     38   1
    41     20     39   1
    42     40     41   2
    43     41     42   1
    44     42     43   2
    45     43     44   1
    46     44     45   2
    47     45     40   1
    48     46     47   2
    49     46     48   1
    50     43     46   1
    51     41     49   1
    52     42     50   1
    53     44     51   1
    54     45     52   1
    55     21     40   1
