# Produced with molli package
@<TRIPOS>MOLECULE
C_2_L
54 58 0 0 0
SMALL
USER_CHARGES

@<TRIPOS>ATOM
     1 C      -3.807415     4.329652     1.573232 C          1 UNL1 0.000
     2 C      -4.391748     3.193887     1.008069 C          1 UNL1 0.000
     3 C      -3.729589     1.958553     1.042366 C          1 UNL1 0.000
     4 C      -2.478787     1.812215     1.665200 C          1 UNL1 0.000
     5 C      -1.888163     2.978130     2.190043 C          1 UNL1 0.000
     6 C      -2.539592     4.216252     2.145875 C          1 UNL1 0.000
     7 N      -1.794366     0.537056     1.725888 N          1 UNL1 0.000
     8 C      -2.473008    -0.738588     1.840741 C          1 UNL1 0.000
     9 C      -3.772605    -0.856062     2.361223 C          1 UNL1 0.000
    10 C      -4.438915    -2.089525     2.403904 C          1 UNL1 0.000
    11 C      -3.814706    -3.252751     1.948100 C          1 UNL1 0.000
    12 C      -2.496595    -3.171547     1.503085 C          1 UNL1 0.000
    13 C      -1.839568    -1.936830     1.457357 C          1 UNL1 0.000
    14 C      -4.501367     5.658606     1.547705 C          1 UNL1 0.000
    15 C      -4.531868    -4.568308     1.982319 C          1 UNL1 0.000
    16 C      -0.349645     0.547082     1.662596 C          1 UNL1 0.000
    17 C       0.371891     0.459945     2.870557 C          1 UNL1 0.000
    18 C       1.764822     0.482085     2.871153 C          1 UNL1 0.000
    19 C       2.454987     0.575937     1.666448 C          1 UNL1 0.000
    20 C       1.754046     0.640134     0.459204 C          1 UNL1 0.000
    21 C       0.347107     0.625233     0.429517 C          1 UNL1 0.000
    22 H      -5.366704     3.255590     0.530263 H          1 UNL1 0.000
    23 H      -4.198786     1.110228     0.550029 H          1 UNL1 0.000
    24 H      -0.908805     2.941079     2.658610 H          1 UNL1 0.000
    25 H      -2.047473     5.088862     2.569670 H          1 UNL1 0.000
    26 H      -4.292256     0.013191     2.754534 H          1 UNL1 0.000
    27 H      -5.453537    -2.129471     2.793534 H          1 UNL1 0.000
    28 H      -1.966902    -4.062186     1.173502 H          1 UNL1 0.000
    29 H      -0.817765    -1.932627     1.091258 H          1 UNL1 0.000
    30 H      -3.971252     6.348784     0.883921 H          1 UNL1 0.000
    31 H      -4.536252     6.086291     2.555488 H          1 UNL1 0.000
    32 H      -5.533042     5.566331     1.193081 H          1 UNL1 0.000
    33 H      -4.031758    -5.308777     1.348463 H          1 UNL1 0.000
    34 H      -5.553728    -4.456478     1.605016 H          1 UNL1 0.000
    35 H      -4.565060    -4.953890     3.005508 H          1 UNL1 0.000
    36 H      -0.167896     0.387060     3.811935 H          1 UNL1 0.000
    37 H       2.308493     0.425320     3.810330 H          1 UNL1 0.000
    38 H       3.541971     0.588660     1.662132 H          1 UNL1 0.000
    39 H       2.312461     0.691521    -0.474019 H          1 UNL1 0.000
    40 C      -0.337548     0.611938    -0.874394 C          1 UNL1 0.000
    41 C      -0.885987     1.779481    -1.420027 C          1 UNL1 0.000
    42 C      -1.557648     1.776353    -2.649955 C          1 UNL1 0.000
    43 C      -1.664912     0.557202    -3.327021 C          1 UNL1 0.000
    44 C      -1.123677    -0.626573    -2.830136 C          1 UNL1 0.000
    45 C      -0.443272    -0.592794    -1.598041 C          1 UNL1 0.000
    46 N      -2.271277     0.251133    -4.524427 N          1 UNL1 0.000
    47 C      -2.134436    -1.084411    -4.798340 C          1 UNL1 0.000
    48 C      -1.425546    -1.654244    -3.765555 C          1 UNL1 0.000
    49 H      -0.806626     2.716814    -0.871801 H          1 UNL1 0.000
    50 H      -1.986646     2.689633    -3.047862 H          1 UNL1 0.000
    51 H      -0.018014    -1.509705    -1.200453 H          1 UNL1 0.000
    52 H      -2.752588     0.920097    -5.108991 H          1 UNL1 0.000
    53 H      -2.554032    -1.512974    -5.698232 H          1 UNL1 0.000
    54 H      -1.157299    -2.699228    -3.683857 H          1 UNL1 0.000
@<TRIPOS>BOND
     1      1      2   2
     2      2      3   1
     3      3      4   2
     4      4      5   1
     5      5      6   2
     6      6      1   1
     7      4      7   1
     8      7      8   1
     9      8      9   2
    10      9     10   1
    11     10     11   2
    12     11     12   1
    13     12     13   2
    14     13      8   1
    15      1     14   1
    16     11     15   1
    17     16     17   2
    18     17     18   1
    19     18     19   2
    20     19     20   1
    21     20     21   2
    22     21     16   1
    23      7     16   1
    24      2     22   1
    25      3     23   1
    26      5     24   1
    27      6     25   1
    28      9     26   1
    29     10     27   1
    30     12     28   1
    31     13     29   1
    32     14     30   1
    33     14     31   1
    34     14     32   1
    35     15     33   1
    36     15     34   1
    37     15     35   1
    38     17     36   1
    39     18     37   1
    40     19     38   1
    41     20     39   1
    42     40     41   2
    43     41     42   1
    44     42     43   2
    45     43     44   1
    46     44     45   2
    47     45     40   1
    48     43     46   1
    49     46     47   1
    50     47     48   2
    51     48     44   1
    52     41     49   1
    53     42     50   1
    54     45     51   1
    55     46     52   1
    56     47     53   1
    57     48     54   1
    58     21     40   1
