# Produced with molli package
@<TRIPOS>MOLECULE
C_2_R
51 54 0 0 0
SMALL
USER_CHARGES

@<TRIPOS>ATOM
     1 C      -3.837894     4.329141     2.069400 C          1 UNL1 0.000
     2 C      -4.448917     3.151279     2.504280 C          1 UNL1 0.000
     3 C      -3.773899     1.925242     2.426513 C          1 UNL1 0.000
     4 C      -2.479504     1.829599     1.889067 C          1 UNL1 0.000
     5 C      -1.858149     3.040051     1.525126 C          1 UNL1 0.000
     6 C      -2.525087     4.268120     1.604704 C          1 UNL1 0.000
     7 N      -1.796558     0.561696     1.733920 N          1 UNL1 0.000
     8 C      -2.478564    -0.715854     1.662808 C          1 UNL1 0.000
     9 C      -3.738066    -0.857723     1.056046 C          1 UNL1 0.000
    10 C      -4.405087    -2.090983     1.031544 C          1 UNL1 0.000
    11 C      -3.813191    -3.230597     1.581183 C          1 UNL1 0.000
    12 C      -2.542532    -3.118690     2.147505 C          1 UNL1 0.000
    13 C      -1.885388    -1.883323     2.180711 C          1 UNL1 0.000
    14 C      -4.569960     5.635231     2.141705 C          1 UNL1 0.000
    15 C      -4.526573    -4.549396     1.597900 C          1 UNL1 0.000
    16 C      -0.351613     0.551766     1.674646 C          1 UNL1 0.000
    17 C       0.369535     0.647876     2.881854 C          1 UNL1 0.000
    18 C       1.762041     0.600998     2.883974 C          1 UNL1 0.000
    19 C       2.452014     0.468470     1.682468 C          1 UNL1 0.000
    20 C       1.751531     0.396664     0.475418 C          1 UNL1 0.000
    21 C       0.345268     0.444529     0.445189 C          1 UNL1 0.000
    22 H      -5.458864     3.174623     2.907899 H          1 UNL1 0.000
    23 H      -4.282219     1.043932     2.808643 H          1 UNL1 0.000
    24 H      -0.837668     3.052274     1.156214 H          1 UNL1 0.000
    25 H      -2.006885     5.171809     1.292428 H          1 UNL1 0.000
    26 H      -4.216181    -0.006868     0.578525 H          1 UNL1 0.000
    27 H      -5.389841    -2.149887     0.573995 H          1 UNL1 0.000
    28 H      -2.050633    -3.990793     2.572424 H          1 UNL1 0.000
    29 H      -0.900864    -1.850537     2.638251 H          1 UNL1 0.000
    30 H      -4.035045     6.422633     1.599852 H          1 UNL1 0.000
    31 H      -4.680299     5.949220     3.183912 H          1 UNL1 0.000
    32 H      -5.560997     5.540402     1.685671 H          1 UNL1 0.000
    33 H      -3.871075    -5.343460     1.225265 H          1 UNL1 0.000
    34 H      -5.418505    -4.531581     0.963456 H          1 UNL1 0.000
    35 H      -4.837635    -4.792994     2.619099 H          1 UNL1 0.000
    36 H      -0.169480     0.737001     3.822459 H          1 UNL1 0.000
    37 H       2.305628     0.658622     3.823409 H          1 UNL1 0.000
    38 H       3.538430     0.425264     1.681994 H          1 UNL1 0.000
    39 H       2.309504     0.305530    -0.454829 H          1 UNL1 0.000
    40 C      -0.345312     0.470959    -0.848233 C          1 UNL1 0.000
    41 N      -0.790231    -0.717265    -1.326918 N          1 UNL1 0.000
    42 C      -1.484723    -0.703265    -2.492468 C          1 UNL1 0.000
    43 C      -1.725998     0.453221    -3.216772 C          1 UNL1 0.000
    44 C      -1.228126     1.666389    -2.744825 C          1 UNL1 0.000
    45 C      -0.522362     1.670301    -1.543943 C          1 UNL1 0.000
    46 N      -2.490283     0.393182    -4.451401 N          1 UNL1 0.000
    47 O      -2.681513    -0.721843    -4.957687 O          1 UNL1 0.000
    48 O      -2.899776     1.461501    -4.925478 O          1 UNL1 0.000
    49 H      -1.846989    -1.677709    -2.810030 H          1 UNL1 0.000
    50 H      -1.384393     2.598197    -3.282151 H          1 UNL1 0.000
    51 H      -0.129822     2.601657    -1.147156 H          1 UNL1 0.000
@<TRIPOS>BOND
     1      1      2   2
     2      2      3   1
     3      3      4   2
     4      4      5   1
     5      5      6   2
     6      6      1   1
     7      4      7   1
     8      7      8   1
     9      8      9   2
    10      9     10   1
    11     10     11   2
    12     11     12   1
    13     12     13   2
    14     13      8   1
    15      1     14   1
    16     11     15   1
    17     16     17   2
    18     17     18   1
    19     18     19   2
    20     19     20   1
    21     20     21   2
    22     21     16   1
    23      7     16   1
    24      2     22   1
    25      3     23   1
    26      5     24   1
    27      6     25   1
    28      9     26   1
    29     10     27   1
    30     12     28   1
    31     13     29   1
    32     14     30   1
    33     14     31   1
    34     14     32   1
    35     15     33   1
    36     15     34   1
    37     15     35   1
    38     17     36   1
    39     18     37   1
    40     19     38   1
    41     20     39   1
    42     40     41   2
    43     41     42   1
    44     42     43   2
    45     43     44   1
    46     44     45   2
    47     45     40   1
    48     46     47   2
    49     46     48   1
    50     43     46   1
    51     42     49   1
    52     44     50   1
    53     45     51   1
    54     21     40   1
