# Produced with molli package
@<TRIPOS>MOLECULE
C_3_O
61 66 0 0 0
SMALL
USER_CHARGES

@<TRIPOS>ATOM
     1 C      -5.919537     4.376743     0.356509 C          1 UNL1 0.000
     2 C      -6.557290     3.227432    -0.113342 C          1 UNL1 0.000
     3 C      -5.893755     1.991652    -0.114040 C          1 UNL1 0.000
     4 C      -4.591267     1.853356     0.394446 C          1 UNL1 0.000
     5 C      -3.952235     3.034823     0.820787 C          1 UNL1 0.000
     6 C      -4.603388     4.273815     0.806400 C          1 UNL1 0.000
     7 N      -3.908148     0.573387     0.446483 N          1 UNL1 0.000
     8 C      -4.577240    -0.713891     0.512582 C          1 UNL1 0.000
     9 C      -5.855483    -0.870224     1.073948 C          1 UNL1 0.000
    10 C      -6.503643    -2.113785     1.090138 C          1 UNL1 0.000
    11 C      -5.875960    -3.251601     0.577872 C          1 UNL1 0.000
    12 C      -4.579471    -3.131685     0.080255 C          1 UNL1 0.000
    13 C      -3.943509    -1.885004     0.050598 C          1 UNL1 0.000
    14 C      -6.623333     5.699755     0.398342 C          1 UNL1 0.000
    15 C      -6.579082    -4.575577     0.584597 C          1 UNL1 0.000
    16 C      -2.411994     0.450052     2.932173 C          1 UNL1 0.000
    17 C      -1.726293     0.398719     4.143946 C          1 UNL1 0.000
    18 C      -0.344593     0.385654     4.140164 C          1 UNL1 0.000
    19 C       0.338985     0.429154     2.924906 C          1 UNL1 0.000
    20 C      -0.330158     0.495731     1.673372 C          1 UNL1 0.000
    21 C      -1.743058     0.499724     1.681822 C          1 UNL1 0.000
    22 C       0.367683     0.561744     0.425175 C          1 UNL1 0.000
    23 C      -0.341857     0.619813    -0.816623 C          1 UNL1 0.000
    24 C      -1.754733     0.644320    -0.810432 C          1 UNL1 0.000
    25 C      -2.444309     0.577089     0.439214 C          1 UNL1 0.000
    26 C       0.315095     0.644943    -2.075970 C          1 UNL1 0.000
    27 C      -0.380398     0.700054    -3.284059 C          1 UNL1 0.000
    28 C      -1.761813     0.734316    -3.272759 C          1 UNL1 0.000
    29 C      -2.435698     0.707273    -2.053600 C          1 UNL1 0.000
    30 H      -7.577310     3.278362    -0.487474 H          1 UNL1 0.000
    31 H      -6.417883     1.138656    -0.536140 H          1 UNL1 0.000
    32 H      -2.931968     3.015528     1.193779 H          1 UNL1 0.000
    33 H      -4.071676     5.154698     1.159380 H          1 UNL1 0.000
    34 H      -6.368713    -0.027084     1.527804 H          1 UNL1 0.000
    35 H      -7.503979    -2.184828     1.511418 H          1 UNL1 0.000
    36 H      -4.047102    -4.001740    -0.297576 H          1 UNL1 0.000
    37 H      -2.937726    -1.853029    -0.359987 H          1 UNL1 0.000
    38 H      -6.047201     6.454958    -0.145917 H          1 UNL1 0.000
    39 H      -6.747762     6.023774     1.437010 H          1 UNL1 0.000
    40 H      -7.616416     5.642211    -0.058644 H          1 UNL1 0.000
    41 H      -5.987866    -5.345873     0.077703 H          1 UNL1 0.000
    42 H      -7.536715    -4.496665     0.059591 H          1 UNL1 0.000
    43 H      -6.756292    -4.905744     1.612644 H          1 UNL1 0.000
    44 H      -3.499737     0.459108     2.971646 H          1 UNL1 0.000
    45 H      -2.276273     0.364834     5.080095 H          1 UNL1 0.000
    46 H       0.207495     0.336376     5.074480 H          1 UNL1 0.000
    47 H       1.426671     0.399828     2.968019 H          1 UNL1 0.000
    48 H       1.401690     0.600115    -2.132266 H          1 UNL1 0.000
    49 H       0.162063     0.707495    -4.225296 H          1 UNL1 0.000
    50 H      -2.320871     0.771447    -4.203433 H          1 UNL1 0.000
    51 H      -3.523814     0.721235    -2.081455 H          1 UNL1 0.000
    52 C       1.843657     0.594104     0.420771 C          1 UNL1 0.000
    53 N       2.463161    -0.611491     0.382577 N          1 UNL1 0.000
    54 C       3.813390    -0.614677     0.384582 C          1 UNL1 0.000
    55 C       4.586986     0.533101     0.422682 C          1 UNL1 0.000
    56 C       3.938847     1.761772     0.460318 C          1 UNL1 0.000
    57 C       2.547342     1.797623     0.459385 C          1 UNL1 0.000
    58 H       4.271817    -1.599030     0.354406 H          1 UNL1 0.000
    59 H       5.669327     0.470011     0.423260 H          1 UNL1 0.000
    60 H       4.510625     2.684739     0.491046 H          1 UNL1 0.000
    61 H       2.019285     2.745411     0.489692 H          1 UNL1 0.000
@<TRIPOS>BOND
     1      1      2   2
     2      2      3   1
     3      3      4   2
     4      4      5   1
     5      5      6   2
     6      6      1   1
     7      4      7   1
     8      7      8   1
     9      8      9   2
    10      9     10   1
    11     10     11   2
    12     11     12   1
    13     12     13   2
    14     13      8   1
    15      1     14   1
    16     11     15   1
    17     16     17   2
    18     17     18   1
    19     18     19   2
    20     19     20   1
    21     20     21   2
    22     21     16   1
    23     20     22   1
    24     22     23   2
    25     23     24   1
    26     24     25   2
    27     25     21   1
    28     23     26   1
    29     26     27   2
    30     27     28   1
    31     28     29   2
    32     29     24   1
    33      7     25   1
    34      2     30   1
    35      3     31   1
    36      5     32   1
    37      6     33   1
    38      9     34   1
    39     10     35   1
    40     12     36   1
    41     13     37   1
    42     14     38   1
    43     14     39   1
    44     14     40   1
    45     15     41   1
    46     15     42   1
    47     15     43   1
    48     16     44   1
    49     17     45   1
    50     18     46   1
    51     19     47   1
    52     26     48   1
    53     27     49   1
    54     28     50   1
    55     29     51   1
    56     52     53   2
    57     53     54   1
    58     54     55   2
    59     55     56   1
    60     56     57   2
    61     57     52   1
    62     54     58   1
    63     55     59   1
    64     56     60   1
    65     57     61   1
    66     22     52   1
