# Produced with molli package
@<TRIPOS>MOLECULE
C_3_N
59 64 0 0 0
SMALL
USER_CHARGES

@<TRIPOS>ATOM
     1 C      -5.953622     4.297520     0.689867 C          1 UNL1 0.000
     2 C      -6.612187     3.132541     1.088632 C          1 UNL1 0.000
     3 C      -5.959688     1.890154     1.052006 C          1 UNL1 0.000
     4 C      -4.643110     1.762088     0.580812 C          1 UNL1 0.000
     5 C      -3.983210     2.961040     0.236531 C          1 UNL1 0.000
     6 C      -4.621215     4.205690     0.294101 C          1 UNL1 0.000
     7 N      -3.956061     0.483426     0.497093 N          1 UNL1 0.000
     8 C      -4.608160    -0.813637     0.436129 C          1 UNL1 0.000
     9 C      -5.894927    -0.992024    -0.096769 C          1 UNL1 0.000
    10 C      -6.528140    -2.245017    -0.088623 C          1 UNL1 0.000
    11 C      -5.870512    -3.373483     0.405248 C          1 UNL1 0.000
    12 C      -4.567072    -3.231675     0.877474 C          1 UNL1 0.000
    13 C      -3.948028    -1.976769     0.884429 C          1 UNL1 0.000
    14 C      -6.644258     5.626827     0.746095 C          1 UNL1 0.000
    15 C      -6.551891    -4.706927     0.477827 C          1 UNL1 0.000
    16 C      -2.474210     0.548698     2.995723 C          1 UNL1 0.000
    17 C      -1.796931     0.550044     4.212902 C          1 UNL1 0.000
    18 C      -0.414713     0.547064     4.218799 C          1 UNL1 0.000
    19 C       0.276681     0.544120     3.007433 C          1 UNL1 0.000
    20 C      -0.385216     0.536831     1.749515 C          1 UNL1 0.000
    21 C      -1.797991     0.536962     1.748699 C          1 UNL1 0.000
    22 C       0.303845     0.524234     0.497731 C          1 UNL1 0.000
    23 C      -0.385222     0.513695    -0.753994 C          1 UNL1 0.000
    24 C      -1.798074     0.490106    -0.753028 C          1 UNL1 0.000
    25 C      -2.490860     0.501109     0.497888 C          1 UNL1 0.000
    26 C       0.276748     0.533590    -2.011721 C          1 UNL1 0.000
    27 C      -0.414797     0.537791    -3.222940 C          1 UNL1 0.000
    28 C      -1.796976     0.513532    -3.216887 C          1 UNL1 0.000
    29 C      -2.474412     0.485359    -1.999750 C          1 UNL1 0.000
    30 H      -7.640849     3.179816     1.439497 H          1 UNL1 0.000
    31 H      -6.505411     1.028807     1.425277 H          1 UNL1 0.000
    32 H      -2.948227     2.956907    -0.094330 H          1 UNL1 0.000
    33 H      -4.062093     5.097284     0.019117 H          1 UNL1 0.000
    34 H      -6.431345    -0.159506    -0.543064 H          1 UNL1 0.000
    35 H      -7.541345    -2.327014    -0.475773 H          1 UNL1 0.000
    36 H      -4.019982    -4.092609     1.255537 H          1 UNL1 0.000
    37 H      -2.935116    -1.932606     1.274409 H          1 UNL1 0.000
    38 H      -6.135026     6.363397     0.114840 H          1 UNL1 0.000
    39 H      -6.658820     6.001275     1.773999 H          1 UNL1 0.000
    40 H      -7.672293     5.541899     0.378952 H          1 UNL1 0.000
    41 H      -5.879627    -5.501633     0.137506 H          1 UNL1 0.000
    42 H      -7.444241    -4.735844    -0.155234 H          1 UNL1 0.000
    43 H      -6.853042    -4.914509     1.509975 H          1 UNL1 0.000
    44 H      -3.562892     0.545325     3.027722 H          1 UNL1 0.000
    45 H      -2.353218     0.550597     5.145982 H          1 UNL1 0.000
    46 H       0.130501     0.546413     5.158468 H          1 UNL1 0.000
    47 H       1.364391     0.542780     3.059153 H          1 UNL1 0.000
    48 H       1.364298     0.553805    -2.063238 H          1 UNL1 0.000
    49 H       0.130160     0.561544    -4.162514 H          1 UNL1 0.000
    50 H      -2.352988     0.519979    -4.150154 H          1 UNL1 0.000
    51 H      -3.562972     0.473839    -2.031467 H          1 UNL1 0.000
    52 C       1.770864     0.536083     0.498097 C          1 UNL1 0.000
    53 C       2.497506    -0.638570     0.509724 C          1 UNL1 0.000
    54 S       4.185163    -0.351531     0.510918 S          1 UNL1 0.000
    55 C       3.954876     1.343969     0.494353 C          1 UNL1 0.000
    56 C       2.620532     1.685915     0.488882 C          1 UNL1 0.000
    57 H       2.122108    -1.653468     0.518725 H          1 UNL1 0.000
    58 H       4.808414     2.007787     0.489782 H          1 UNL1 0.000
    59 H       2.267093     2.710111     0.478858 H          1 UNL1 0.000
@<TRIPOS>BOND
     1      1      2   2
     2      2      3   1
     3      3      4   2
     4      4      5   1
     5      5      6   2
     6      6      1   1
     7      4      7   1
     8      7      8   1
     9      8      9   2
    10      9     10   1
    11     10     11   2
    12     11     12   1
    13     12     13   2
    14     13      8   1
    15      1     14   1
    16     11     15   1
    17     16     17   2
    18     17     18   1
    19     18     19   2
    20     19     20   1
    21     20     21   2
    22     21     16   1
    23     20     22   1
    24     22     23   2
    25     23     24   1
    26     24     25   2
    27     25     21   1
    28     23     26   1
    29     26     27   2
    30     27     28   1
    31     28     29   2
    32     29     24   1
    33      7     25   1
    34      2     30   1
    35      3     31   1
    36      5     32   1
    37      6     33   1
    38      9     34   1
    39     10     35   1
    40     12     36   1
    41     13     37   1
    42     14     38   1
    43     14     39   1
    44     14     40   1
    45     15     41   1
    46     15     42   1
    47     15     43   1
    48     16     44   1
    49     17     45   1
    50     18     46   1
    51     19     47   1
    52     26     48   1
    53     27     49   1
    54     28     50   1
    55     29     51   1
    56     52     53   2
    57     53     54   1
    58     54     55   1
    59     55     56   2
    60     56     52   1
    61     53     57   1
    62     55     58   1
    63     56     59   1
    64     22     52   1
