# Produced with molli package
@<TRIPOS>MOLECULE
C_3_P
66 71 0 0 0
SMALL
USER_CHARGES

@<TRIPOS>ATOM
     1 C      -5.878304     4.322014     0.316854 C          1 UNL1 0.000
     2 C      -6.471884     3.190464    -0.246403 C          1 UNL1 0.000
     3 C      -5.817240     1.949970    -0.217409 C          1 UNL1 0.000
     4 C      -4.572165     1.790210     0.412456 C          1 UNL1 0.000
     5 C      -3.972054     2.955340     0.930628 C          1 UNL1 0.000
     6 C      -4.614030     4.197590     0.891471 C          1 UNL1 0.000
     7 N      -3.901070     0.505752     0.498339 N          1 UNL1 0.000
     8 C      -4.578084    -0.778758     0.559374 C          1 UNL1 0.000
     9 C      -5.913375    -0.911751     0.975477 C          1 UNL1 0.000
    10 C      -6.561998    -2.156024     0.987649 C          1 UNL1 0.000
    11 C      -5.882882    -3.317970     0.616602 C          1 UNL1 0.000
    12 C      -4.534483    -3.220941     0.277649 C          1 UNL1 0.000
    13 C      -3.898260    -1.973798     0.245154 C          1 UNL1 0.000
    14 C      -6.580792     5.646119     0.339143 C          1 UNL1 0.000
    15 C      -6.568882    -4.650651     0.646633 C          1 UNL1 0.000
    16 C      -2.436262     0.445949     3.006342 C          1 UNL1 0.000
    17 C      -1.767650     0.455498     4.228088 C          1 UNL1 0.000
    18 C      -0.385891     0.487184     4.243152 C          1 UNL1 0.000
    19 C       0.313980     0.505153     3.036418 C          1 UNL1 0.000
    20 C      -0.337416     0.504022     1.774555 C          1 UNL1 0.000
    21 C      -1.751244     0.478699     1.764578 C          1 UNL1 0.000
    22 C       0.374985     0.532537     0.533279 C          1 UNL1 0.000
    23 C      -0.319497     0.556533    -0.719021 C          1 UNL1 0.000
    24 C      -1.733252     0.554847    -0.730899 C          1 UNL1 0.000
    25 C      -2.436557     0.512714     0.511734 C          1 UNL1 0.000
    26 C       0.351335     0.575390    -1.971099 C          1 UNL1 0.000
    27 C      -0.328881     0.586599    -3.188707 C          1 UNL1 0.000
    28 C      -1.710752     0.582836    -3.195112 C          1 UNL1 0.000
    29 C      -2.398579     0.569146    -1.983734 C          1 UNL1 0.000
    30 H      -7.449848     3.260201    -0.717214 H          1 UNL1 0.000
    31 H      -6.298214     1.110995    -0.712897 H          1 UNL1 0.000
    32 H      -2.993152     2.919894     1.400084 H          1 UNL1 0.000
    33 H      -4.116692     5.063179     1.323572 H          1 UNL1 0.000
    34 H      -6.478446    -0.050446     1.319472 H          1 UNL1 0.000
    35 H      -7.604247    -2.206242     1.295222 H          1 UNL1 0.000
    36 H      -3.961934    -4.111258     0.027061 H          1 UNL1 0.000
    37 H      -2.850412    -1.963436    -0.042757 H          1 UNL1 0.000
    38 H      -5.926497     6.432144    -0.051898 H          1 UNL1 0.000
    39 H      -6.867471     5.898044     1.365601 H          1 UNL1 0.000
    40 H      -7.487145     5.631090    -0.274250 H          1 UNL1 0.000
    41 H      -6.075747    -5.361442    -0.025520 H          1 UNL1 0.000
    42 H      -7.607729    -4.558678     0.312724 H          1 UNL1 0.000
    43 H      -6.553878    -5.059912     1.661169 H          1 UNL1 0.000
    44 H      -3.524966     0.426519     3.029957 H          1 UNL1 0.000
    45 H      -2.330214     0.441957     5.157246 H          1 UNL1 0.000
    46 H       0.152675     0.498367     5.186518 H          1 UNL1 0.000
    47 H       1.400994     0.528284     3.095940 H          1 UNL1 0.000
    48 H       1.439606     0.577758    -2.015060 H          1 UNL1 0.000
    49 H       0.225616     0.596539    -4.122870 H          1 UNL1 0.000
    50 H      -2.258248     0.587905    -4.133242 H          1 UNL1 0.000
    51 H      -3.486448     0.558716    -2.025840 H          1 UNL1 0.000
    52 C       1.857204     0.517785     0.540290 C          1 UNL1 0.000
    53 C       2.590883     1.716660     0.561086 C          1 UNL1 0.000
    54 C       3.987718     1.695962     0.543376 C          1 UNL1 0.000
    55 C       4.655436     0.474270     0.515838 C          1 UNL1 0.000
    56 C       3.948245    -0.723781     0.476749 C          1 UNL1 0.000
    57 C       2.553621    -0.702278     0.499931 C          1 UNL1 0.000
    58 O       6.020529     0.428883     0.448637 O          1 UNL1 0.000
    59 C       6.584107     0.587107     1.750401 C          1 UNL1 0.000
    60 H       2.070086     2.672113     0.576923 H          1 UNL1 0.000
    61 H       4.545784     2.627325     0.535964 H          1 UNL1 0.000
    62 H       4.479559    -1.669368     0.425530 H          1 UNL1 0.000
    63 H       2.004902    -1.641532     0.472143 H          1 UNL1 0.000
    64 H       7.631783     0.275365     1.700459 H          1 UNL1 0.000
    65 H       6.081542    -0.041500     2.494935 H          1 UNL1 0.000
    66 H       6.553926     1.637909     2.056030 H          1 UNL1 0.000
@<TRIPOS>BOND
     1      1      2   2
     2      2      3   1
     3      3      4   2
     4      4      5   1
     5      5      6   2
     6      6      1   1
     7      4      7   1
     8      7      8   1
     9      8      9   2
    10      9     10   1
    11     10     11   2
    12     11     12   1
    13     12     13   2
    14     13      8   1
    15      1     14   1
    16     11     15   1
    17     16     17   2
    18     17     18   1
    19     18     19   2
    20     19     20   1
    21     20     21   2
    22     21     16   1
    23     20     22   1
    24     22     23   2
    25     23     24   1
    26     24     25   2
    27     25     21   1
    28     23     26   1
    29     26     27   2
    30     27     28   1
    31     28     29   2
    32     29     24   1
    33      7     25   1
    34      2     30   1
    35      3     31   1
    36      5     32   1
    37      6     33   1
    38      9     34   1
    39     10     35   1
    40     12     36   1
    41     13     37   1
    42     14     38   1
    43     14     39   1
    44     14     40   1
    45     15     41   1
    46     15     42   1
    47     15     43   1
    48     16     44   1
    49     17     45   1
    50     18     46   1
    51     19     47   1
    52     26     48   1
    53     27     49   1
    54     28     50   1
    55     29     51   1
    56     52     53   2
    57     53     54   1
    58     54     55   2
    59     55     56   1
    60     56     57   2
    61     57     52   1
    62     58     59   1
    63     55     58   1
    64     53     60   1
    65     54     61   1
    66     56     62   1
    67     57     63   1
    68     59     64   1
    69     59     65   1
    70     59     66   1
    71     22     52   1
