# Produced with molli package
@<TRIPOS>MOLECULE
C_3_K
64 69 0 0 0
SMALL
USER_CHARGES

@<TRIPOS>ATOM
     1 C      -5.887777     4.320995     0.303767 C          1 UNL1 0.000
     2 C      -6.500606     3.178023    -0.213686 C          1 UNL1 0.000
     3 C      -5.847904     1.938818    -0.171962 C          1 UNL1 0.000
     4 C      -4.580074     1.795000     0.418005 C          1 UNL1 0.000
     5 C      -3.966509     2.964701     0.904005 C          1 UNL1 0.000
     6 C      -4.612323     4.205407     0.858322 C          1 UNL1 0.000
     7 N      -3.915233     0.508757     0.495087 N          1 UNL1 0.000
     8 C      -4.623550    -0.752374     0.587030 C          1 UNL1 0.000
     9 C      -5.880405    -0.850842     1.209020 C          1 UNL1 0.000
    10 C      -6.572765    -2.066724     1.272197 C          1 UNL1 0.000
    11 C      -6.016424    -3.230044     0.735276 C          1 UNL1 0.000
    12 C      -4.749293    -3.161456     0.155117 C          1 UNL1 0.000
    13 C      -4.062618    -1.943053     0.089312 C          1 UNL1 0.000
    14 C      -6.593728     5.643636     0.311831 C          1 UNL1 0.000
    15 C      -6.772960    -4.523391     0.789736 C          1 UNL1 0.000
    16 C      -2.439550     0.401874     2.993280 C          1 UNL1 0.000
    17 C      -1.765369     0.403052     4.212322 C          1 UNL1 0.000
    18 C      -0.384412     0.438874     4.221760 C          1 UNL1 0.000
    19 C       0.309422     0.465122     3.011919 C          1 UNL1 0.000
    20 C      -0.347414     0.459440     1.751789 C          1 UNL1 0.000
    21 C      -1.761027     0.437561     1.747627 C          1 UNL1 0.000
    22 C       0.360967     0.486692     0.507226 C          1 UNL1 0.000
    23 C      -0.340039     0.506490    -0.741659 C          1 UNL1 0.000
    24 C      -1.753712     0.526089    -0.746107 C          1 UNL1 0.000
    25 C      -2.453409     0.485251     0.498617 C          1 UNL1 0.000
    26 C       0.324562     0.501929    -1.997643 C          1 UNL1 0.000
    27 C      -0.362070     0.525760    -3.211610 C          1 UNL1 0.000
    28 C      -1.743271     0.558843    -3.210499 C          1 UNL1 0.000
    29 C      -2.425052     0.560605    -1.995561 C          1 UNL1 0.000
    30 H      -7.491539     3.238258    -0.657921 H          1 UNL1 0.000
    31 H      -6.346735     1.084505    -0.622528 H          1 UNL1 0.000
    32 H      -2.978233     2.932474     1.353730 H          1 UNL1 0.000
    33 H      -4.108788     5.078543     1.267541 H          1 UNL1 0.000
    34 H      -6.336468     0.020422     1.672235 H          1 UNL1 0.000
    35 H      -7.550405    -2.096367     1.748184 H          1 UNL1 0.000
    36 H      -4.281314    -4.052074    -0.258268 H          1 UNL1 0.000
    37 H      -3.083872    -1.944313    -0.382174 H          1 UNL1 0.000
    38 H      -5.913455     6.443965     0.002420 H          1 UNL1 0.000
    39 H      -6.966448     5.861047     1.317977 H          1 UNL1 0.000
    40 H      -7.442280     5.647476    -0.379836 H          1 UNL1 0.000
    41 H      -6.206192    -5.340019     0.330161 H          1 UNL1 0.000
    42 H      -7.719820    -4.428266     0.248272 H          1 UNL1 0.000
    43 H      -6.977533    -4.799257     1.828930 H          1 UNL1 0.000
    44 H      -3.527595     0.385544     3.023983 H          1 UNL1 0.000
    45 H      -2.323805     0.382756     5.143983 H          1 UNL1 0.000
    46 H       0.158338     0.447814     5.162982 H          1 UNL1 0.000
    47 H       1.395710     0.497908     3.070369 H          1 UNL1 0.000
    48 H       1.411331     0.472691    -2.049280 H          1 UNL1 0.000
    49 H       0.186492     0.518057    -4.149495 H          1 UNL1 0.000
    50 H      -2.295811     0.577718    -4.145713 H          1 UNL1 0.000
    51 H      -3.513066     0.576700    -2.032112 H          1 UNL1 0.000
    52 C       1.843952     0.501267     0.511702 C          1 UNL1 0.000
    53 C       2.570904    -0.693357     0.667752 C          1 UNL1 0.000
    54 C       3.967430    -0.682858     0.680468 C          1 UNL1 0.000
    55 C       4.640642     0.532325     0.520082 C          1 UNL1 0.000
    56 C       3.941973     1.732731     0.355591 C          1 UNL1 0.000
    57 C       2.545598     1.711779     0.360014 C          1 UNL1 0.000
    58 N       6.100079     0.549414     0.523596 N          1 UNL1 0.000
    59 O       6.662999     1.385136    -0.195024 O          1 UNL1 0.000
    60 O       6.677697    -0.275560     1.247139 O          1 UNL1 0.000
    61 H       2.041783    -1.638223     0.785991 H          1 UNL1 0.000
    62 H       4.511149    -1.616423     0.808563 H          1 UNL1 0.000
    63 H       4.465394     2.678080     0.230801 H          1 UNL1 0.000
    64 H       1.996485     2.644876     0.238708 H          1 UNL1 0.000
@<TRIPOS>BOND
     1      1      2   2
     2      2      3   1
     3      3      4   2
     4      4      5   1
     5      5      6   2
     6      6      1   1
     7      4      7   1
     8      7      8   1
     9      8      9   2
    10      9     10   1
    11     10     11   2
    12     11     12   1
    13     12     13   2
    14     13      8   1
    15      1     14   1
    16     11     15   1
    17     16     17   2
    18     17     18   1
    19     18     19   2
    20     19     20   1
    21     20     21   2
    22     21     16   1
    23     20     22   1
    24     22     23   2
    25     23     24   1
    26     24     25   2
    27     25     21   1
    28     23     26   1
    29     26     27   2
    30     27     28   1
    31     28     29   2
    32     29     24   1
    33      7     25   1
    34      2     30   1
    35      3     31   1
    36      5     32   1
    37      6     33   1
    38      9     34   1
    39     10     35   1
    40     12     36   1
    41     13     37   1
    42     14     38   1
    43     14     39   1
    44     14     40   1
    45     15     41   1
    46     15     42   1
    47     15     43   1
    48     16     44   1
    49     17     45   1
    50     18     46   1
    51     19     47   1
    52     26     48   1
    53     27     49   1
    54     28     50   1
    55     29     51   1
    56     52     53   2
    57     53     54   1
    58     54     55   2
    59     55     56   1
    60     56     57   2
    61     57     52   1
    62     58     59   2
    63     58     60   1
    64     55     58   1
    65     53     61   1
    66     54     62   1
    67     56     63   1
    68     57     64   1
    69     22     52   1
