# Produced with molli package
@<TRIPOS>MOLECULE
C_3_S
67 72 0 0 0
SMALL
USER_CHARGES

@<TRIPOS>ATOM
     1 C      -5.943669     4.319370     0.602103 C          1 UNL1 0.000
     2 C      -6.567059     3.157977     1.063565 C          1 UNL1 0.000
     3 C      -5.896909     1.926388     1.035583 C          1 UNL1 0.000
     4 C      -4.598027     1.806129     0.513956 C          1 UNL1 0.000
     5 C      -3.971710     2.999336     0.100774 C          1 UNL1 0.000
     6 C      -4.629682     4.234505     0.144369 C          1 UNL1 0.000
     7 N      -3.901571     0.533879     0.444577 N          1 UNL1 0.000
     8 C      -4.556478    -0.760417     0.373527 C          1 UNL1 0.000
     9 C      -5.838415    -0.927007    -0.176341 C          1 UNL1 0.000
    10 C      -6.475412    -2.176788    -0.191287 C          1 UNL1 0.000
    11 C      -5.827296    -3.312284     0.298787 C          1 UNL1 0.000
    12 C      -4.531765    -3.179209     0.796759 C          1 UNL1 0.000
    13 C      -3.907517    -1.927097     0.825691 C          1 UNL1 0.000
    14 C      -6.664427     5.633548     0.635906 C          1 UNL1 0.000
    15 C      -6.515747    -4.643312     0.343151 C          1 UNL1 0.000
    16 C      -2.457996     0.662499     2.959678 C          1 UNL1 0.000
    17 C      -1.799995     0.679503     4.187160 C          1 UNL1 0.000
    18 C      -0.418854     0.649664     4.214861 C          1 UNL1 0.000
    19 C       0.291651     0.611193     3.014661 C          1 UNL1 0.000
    20 C      -0.348561     0.599886     1.746445 C          1 UNL1 0.000
    21 C      -1.762021     0.616011     1.724260 C          1 UNL1 0.000
    22 C       0.374920     0.562108     0.511006 C          1 UNL1 0.000
    23 C      -0.311204     0.521182    -0.746954 C          1 UNL1 0.000
    24 C      -1.724129     0.500799    -0.769058 C          1 UNL1 0.000
    25 C      -2.437754     0.554436     0.466829 C          1 UNL1 0.000
    26 C       0.367490     0.506677    -1.995535 C          1 UNL1 0.000
    27 C      -0.304545     0.464647    -3.217203 C          1 UNL1 0.000
    28 C      -1.685662     0.435675    -3.232219 C          1 UNL1 0.000
    29 C      -2.381506     0.453234    -2.025537 C          1 UNL1 0.000
    30 H      -7.581042     3.200680     1.455269 H          1 UNL1 0.000
    31 H      -6.410520     1.064085     1.451401 H          1 UNL1 0.000
    32 H      -2.953856     2.993810    -0.279497 H          1 UNL1 0.000
    33 H      -4.101489     5.124246    -0.190914 H          1 UNL1 0.000
    34 H      -6.366443    -0.085946    -0.617112 H          1 UNL1 0.000
    35 H      -7.483171    -2.251080    -0.593793 H          1 UNL1 0.000
    36 H      -3.994820    -4.045768     1.176434 H          1 UNL1 0.000
    37 H      -2.901327    -1.886547     1.233513 H          1 UNL1 0.000
    38 H      -6.110372     6.407185     0.093381 H          1 UNL1 0.000
    39 H      -6.794169     5.967051     1.669951 H          1 UNL1 0.000
    40 H      -7.646399     5.540168     0.160497 H          1 UNL1 0.000
    41 H      -5.829860    -5.442469     0.042887 H          1 UNL1 0.000
    42 H      -7.372572    -4.672388    -0.337398 H          1 UNL1 0.000
    43 H      -6.871878    -4.843810     1.358900 H          1 UNL1 0.000
    44 H      -3.546578     0.673476     2.975034 H          1 UNL1 0.000
    45 H      -2.371007     0.707964     5.110936 H          1 UNL1 0.000
    46 H       0.111183     0.652936     5.163270 H          1 UNL1 0.000
    47 H       1.377362     0.579974     3.086181 H          1 UNL1 0.000
    48 H       1.454998     0.532113    -2.034793 H          1 UNL1 0.000
    49 H       0.255771     0.454891    -4.148011 H          1 UNL1 0.000
    50 H      -2.227038     0.403813    -4.173497 H          1 UNL1 0.000
    51 H      -3.469089     0.439667    -2.074200 H          1 UNL1 0.000
    52 C       1.857549     0.570854     0.527960 C          1 UNL1 0.000
    53 C       2.583918    -0.619173     0.373334 C          1 UNL1 0.000
    54 C       3.981224    -0.601933     0.345250 C          1 UNL1 0.000
    55 C       4.680239     0.604539     0.481601 C          1 UNL1 0.000
    56 C       3.964267     1.793005     0.661828 C          1 UNL1 0.000
    57 C       2.564925     1.774387     0.677742 C          1 UNL1 0.000
    58 C       6.172229     0.570944     0.422193 C          1 UNL1 0.000
    59 C       6.940068     1.865220     0.488002 C          1 UNL1 0.000
    60 O       6.756912    -0.507608     0.333516 O          1 UNL1 0.000
    61 H       2.060579    -1.566897     0.257193 H          1 UNL1 0.000
    62 H       4.521026    -1.537703     0.208447 H          1 UNL1 0.000
    63 H       4.464129     2.748535     0.788219 H          1 UNL1 0.000
    64 H       2.020094     2.708843     0.805353 H          1 UNL1 0.000
    65 H       6.932600     2.249471     1.510988 H          1 UNL1 0.000
    66 H       6.528853     2.600837    -0.207723 H          1 UNL1 0.000
    67 H       7.976739     1.680842     0.188678 H          1 UNL1 0.000
@<TRIPOS>BOND
     1      1      2   2
     2      2      3   1
     3      3      4   2
     4      4      5   1
     5      5      6   2
     6      6      1   1
     7      4      7   1
     8      7      8   1
     9      8      9   2
    10      9     10   1
    11     10     11   2
    12     11     12   1
    13     12     13   2
    14     13      8   1
    15      1     14   1
    16     11     15   1
    17     16     17   2
    18     17     18   1
    19     18     19   2
    20     19     20   1
    21     20     21   2
    22     21     16   1
    23     20     22   1
    24     22     23   2
    25     23     24   1
    26     24     25   2
    27     25     21   1
    28     23     26   1
    29     26     27   2
    30     27     28   1
    31     28     29   2
    32     29     24   1
    33      7     25   1
    34      2     30   1
    35      3     31   1
    36      5     32   1
    37      6     33   1
    38      9     34   1
    39     10     35   1
    40     12     36   1
    41     13     37   1
    42     14     38   1
    43     14     39   1
    44     14     40   1
    45     15     41   1
    46     15     42   1
    47     15     43   1
    48     16     44   1
    49     17     45   1
    50     18     46   1
    51     19     47   1
    52     26     48   1
    53     27     49   1
    54     28     50   1
    55     29     51   1
    56     52     53   2
    57     53     54   1
    58     54     55   2
    59     55     56   1
    60     56     57   2
    61     57     52   1
    62     55     58   1
    63     58     59   1
    64     58     60   2
    65     53     61   1
    66     54     62   1
    67     56     63   1
    68     57     64   1
    69     59     65   1
    70     59     66   1
    71     59     67   1
    72     22     52   1
