# Produced with molli package
@<TRIPOS>MOLECULE
C_3_M
63 68 0 0 0
SMALL
USER_CHARGES

@<TRIPOS>ATOM
     1 C      -6.074700     4.283566     0.427022 C          1 UNL1 0.000
     2 C      -6.647146     3.136527    -0.124562 C          1 UNL1 0.000
     3 C      -5.939071     1.926041    -0.147914 C          1 UNL1 0.000
     4 C      -4.659092     1.808547     0.419597 C          1 UNL1 0.000
     5 C      -4.073001     2.996266     0.899918 C          1 UNL1 0.000
     6 C      -4.768108     4.211380     0.909429 C          1 UNL1 0.000
     7 N      -3.952736     0.541297     0.491077 N          1 UNL1 0.000
     8 C      -4.600555    -0.758633     0.566889 C          1 UNL1 0.000
     9 C      -5.918764    -0.922282     1.024719 C          1 UNL1 0.000
    10 C      -6.546757    -2.176380     1.031905 C          1 UNL1 0.000
    11 C      -5.857040    -3.321139     0.628543 C          1 UNL1 0.000
    12 C      -4.523593    -3.194608     0.244050 C          1 UNL1 0.000
    13 C      -3.909240    -1.936388     0.215692 C          1 UNL1 0.000
    14 C      -6.832902     5.574172     0.510258 C          1 UNL1 0.000
    15 C      -6.543810    -4.653489     0.609860 C          1 UNL1 0.000
    16 C      -2.498782     0.546614     3.006205 C          1 UNL1 0.000
    17 C      -1.835488     0.566914     4.230884 C          1 UNL1 0.000
    18 C      -0.454025     0.592744     4.252228 C          1 UNL1 0.000
    19 C       0.251642     0.597208     3.048705 C          1 UNL1 0.000
    20 C      -0.394405     0.584747     1.783671 C          1 UNL1 0.000
    21 C      -1.807986     0.561609     1.767170 C          1 UNL1 0.000
    22 C       0.324539     0.596998     0.545542 C          1 UNL1 0.000
    23 C      -0.364972     0.601222    -0.709944 C          1 UNL1 0.000
    24 C      -1.778530     0.600746    -0.728277 C          1 UNL1 0.000
    25 C      -2.488775     0.575397     0.510938 C          1 UNL1 0.000
    26 C       0.312136     0.595895    -1.958999 C          1 UNL1 0.000
    27 C      -0.362878     0.582670    -3.179519 C          1 UNL1 0.000
    28 C      -1.744587     0.581905    -3.191991 C          1 UNL1 0.000
    29 C      -2.438574     0.594870    -1.983917 C          1 UNL1 0.000
    30 H      -7.652857     3.167675    -0.537616 H          1 UNL1 0.000
    31 H      -6.413319     1.073133    -0.625868 H          1 UNL1 0.000
    32 H      -3.066208     2.999959     1.307564 H          1 UNL1 0.000
    33 H      -4.281333     5.095912     1.314487 H          1 UNL1 0.000
    34 H      -6.488123    -0.077054     1.400137 H          1 UNL1 0.000
    35 H      -7.581793    -2.248712     1.358932 H          1 UNL1 0.000
    36 H      -3.945759    -4.068599    -0.047906 H          1 UNL1 0.000
    37 H      -2.872000    -1.903046    -0.105916 H          1 UNL1 0.000
    38 H      -6.325180     6.352523    -0.067624 H          1 UNL1 0.000
    39 H      -6.909460     5.895164     1.554888 H          1 UNL1 0.000
    40 H      -7.850399     5.469341     0.120146 H          1 UNL1 0.000
    41 H      -5.863278    -5.451562     0.294408 H          1 UNL1 0.000
    42 H      -7.382435    -4.633033    -0.093878 H          1 UNL1 0.000
    43 H      -6.915825    -4.904207     1.607987 H          1 UNL1 0.000
    44 H      -3.587447     0.531488     3.025769 H          1 UNL1 0.000
    45 H      -2.402519     0.564845     5.157574 H          1 UNL1 0.000
    46 H       0.079958     0.609432     5.198325 H          1 UNL1 0.000
    47 H       1.337957     0.615961     3.114974 H          1 UNL1 0.000
    48 H       1.399909     0.595240    -1.999140 H          1 UNL1 0.000
    49 H       0.195187     0.571131    -4.111704 H          1 UNL1 0.000
    50 H      -2.287880     0.567885    -4.132660 H          1 UNL1 0.000
    51 H      -3.526311     0.586988    -2.030376 H          1 UNL1 0.000
    52 C       1.806654     0.596316     0.559814 C          1 UNL1 0.000
    53 C       2.524101     1.803317     0.571533 C          1 UNL1 0.000
    54 C       3.922038     1.801741     0.565022 C          1 UNL1 0.000
    55 C       4.622013     0.591406     0.546303 C          1 UNL1 0.000
    56 C       3.918218    -0.616633     0.539704 C          1 UNL1 0.000
    57 C       2.520491    -0.613217     0.547514 C          1 UNL1 0.000
    58 C       6.055391     0.588937     0.529237 C          1 UNL1 0.000
    59 N       7.216160     0.586585     0.513092 N          1 UNL1 0.000
    60 H       1.989997     2.752294     0.580837 H          1 UNL1 0.000
    61 H       4.456244     2.750125     0.570691 H          1 UNL1 0.000
    62 H       4.448996    -1.566842     0.524760 H          1 UNL1 0.000
    63 H       1.983215    -1.560467     0.537782 H          1 UNL1 0.000
@<TRIPOS>BOND
     1      1      2   2
     2      2      3   1
     3      3      4   2
     4      4      5   1
     5      5      6   2
     6      6      1   1
     7      4      7   1
     8      7      8   1
     9      8      9   2
    10      9     10   1
    11     10     11   2
    12     11     12   1
    13     12     13   2
    14     13      8   1
    15      1     14   1
    16     11     15   1
    17     16     17   2
    18     17     18   1
    19     18     19   2
    20     19     20   1
    21     20     21   2
    22     21     16   1
    23     20     22   1
    24     22     23   2
    25     23     24   1
    26     24     25   2
    27     25     21   1
    28     23     26   1
    29     26     27   2
    30     27     28   1
    31     28     29   2
    32     29     24   1
    33      7     25   1
    34      2     30   1
    35      3     31   1
    36      5     32   1
    37      6     33   1
    38      9     34   1
    39     10     35   1
    40     12     36   1
    41     13     37   1
    42     14     38   1
    43     14     39   1
    44     14     40   1
    45     15     41   1
    46     15     42   1
    47     15     43   1
    48     16     44   1
    49     17     45   1
    50     18     46   1
    51     19     47   1
    52     26     48   1
    53     27     49   1
    54     28     50   1
    55     29     51   1
    56     52     53   2
    57     53     54   1
    58     54     55   2
    59     55     56   1
    60     56     57   2
    61     57     52   1
    62     58     59   3
    63     55     58   1
    64     53     60   1
    65     54     61   1
    66     56     62   1
    67     57     63   1
    68     22     52   1
