# Produced with molli package
@<TRIPOS>MOLECULE
C_3_Q
60 65 0 0 0
SMALL
USER_CHARGES

@<TRIPOS>ATOM
     1 C      -5.951119     4.310118     0.397722 C          1 UNL1 0.000
     2 C      -6.562018     3.169329    -0.125670 C          1 UNL1 0.000
     3 C      -5.893701     1.937500    -0.121106 C          1 UNL1 0.000
     4 C      -4.615505     1.794362     0.446177 C          1 UNL1 0.000
     5 C      -3.999478     2.966027     0.925232 C          1 UNL1 0.000
     6 C      -4.657984     4.201409     0.910895 C          1 UNL1 0.000
     7 N      -3.945222     0.509742     0.515560 N          1 UNL1 0.000
     8 C      -4.642056    -0.761072     0.595949 C          1 UNL1 0.000
     9 C      -5.922130    -0.875687     1.165084 C          1 UNL1 0.000
    10 C      -6.602997    -2.099904     1.199691 C          1 UNL1 0.000
    11 C      -6.007646    -3.259294     0.697940 C          1 UNL1 0.000
    12 C      -4.714314    -3.178097     0.182353 C          1 UNL1 0.000
    13 C      -4.042847    -1.950320     0.138054 C          1 UNL1 0.000
    14 C      -6.678396     5.619707     0.460550 C          1 UNL1 0.000
    15 C      -6.754217    -4.559261     0.710022 C          1 UNL1 0.000
    16 C      -2.493173     0.399321     3.028691 C          1 UNL1 0.000
    17 C      -1.830033     0.356964     4.252865 C          1 UNL1 0.000
    18 C      -0.448543     0.322561     4.273667 C          1 UNL1 0.000
    19 C       0.256506     0.336644     3.070315 C          1 UNL1 0.000
    20 C      -0.389132     0.396083     1.806331 C          1 UNL1 0.000
    21 C      -1.803624     0.420964     1.789503 C          1 UNL1 0.000
    22 C       0.329292     0.434072     0.569793 C          1 UNL1 0.000
    23 C      -0.356780     0.479859    -0.684672 C          1 UNL1 0.000
    24 C      -1.770714     0.526075    -0.703368 C          1 UNL1 0.000
    25 C      -2.482406     0.491051     0.534366 C          1 UNL1 0.000
    26 C       0.321689     0.474242    -1.932472 C          1 UNL1 0.000
    27 C      -0.351336     0.517006    -3.153189 C          1 UNL1 0.000
    28 C      -1.732387     0.572607    -3.166623 C          1 UNL1 0.000
    29 C      -2.427399     0.578592    -1.959238 C          1 UNL1 0.000
    30 H      -7.565415     3.224110    -0.541843 H          1 UNL1 0.000
    31 H      -6.394134     1.087154    -0.577094 H          1 UNL1 0.000
    32 H      -2.999690     2.939065     1.349030 H          1 UNL1 0.000
    33 H      -4.152148     5.074623     1.317120 H          1 UNL1 0.000
    34 H      -6.410864    -0.011745     1.607394 H          1 UNL1 0.000
    35 H      -7.603168    -2.138555     1.625511 H          1 UNL1 0.000
    36 H      -4.212641    -4.065153    -0.197915 H          1 UNL1 0.000
    37 H      -3.041305    -1.946026    -0.283531 H          1 UNL1 0.000
    38 H      -6.022429     6.440003     0.151467 H          1 UNL1 0.000
    39 H      -7.023008     5.804496     1.483303 H          1 UNL1 0.000
    40 H      -7.549056     5.625561    -0.203083 H          1 UNL1 0.000
    41 H      -6.135767    -5.381073     0.333843 H          1 UNL1 0.000
    42 H      -7.641034    -4.487845     0.071862 H          1 UNL1 0.000
    43 H      -7.062393    -4.811649     1.729389 H          1 UNL1 0.000
    44 H      -3.581657     0.425221     3.049871 H          1 UNL1 0.000
    45 H      -2.396545     0.346783     5.179669 H          1 UNL1 0.000
    46 H       0.085404     0.279796     5.218884 H          1 UNL1 0.000
    47 H       1.342813     0.289638     3.137143 H          1 UNL1 0.000
    48 H       1.408772     0.413861    -1.971985 H          1 UNL1 0.000
    49 H       0.207062     0.499577    -4.084986 H          1 UNL1 0.000
    50 H      -2.273956     0.602018    -4.107813 H          1 UNL1 0.000
    51 H      -3.514897     0.610586    -2.007057 H          1 UNL1 0.000
    52 C       1.802995     0.457108     0.588421 C          1 UNL1 0.000
    53 N       2.433492    -0.741951     0.491471 N          1 UNL1 0.000
    54 C       3.785551    -0.699287     0.506547 C          1 UNL1 0.000
    55 C       4.491964     0.486502     0.614700 C          1 UNL1 0.000
    56 N       3.880261     1.687583     0.712200 N          1 UNL1 0.000
    57 C       2.524723     1.645384     0.695116 C          1 UNL1 0.000
    58 H       4.290836    -1.655111     0.427719 H          1 UNL1 0.000
    59 H       5.575875     0.501581     0.625287 H          1 UNL1 0.000
    60 H       2.025074     2.605600     0.771576 H          1 UNL1 0.000
@<TRIPOS>BOND
     1      1      2   2
     2      2      3   1
     3      3      4   2
     4      4      5   1
     5      5      6   2
     6      6      1   1
     7      4      7   1
     8      7      8   1
     9      8      9   2
    10      9     10   1
    11     10     11   2
    12     11     12   1
    13     12     13   2
    14     13      8   1
    15      1     14   1
    16     11     15   1
    17     16     17   2
    18     17     18   1
    19     18     19   2
    20     19     20   1
    21     20     21   2
    22     21     16   1
    23     20     22   1
    24     22     23   2
    25     23     24   1
    26     24     25   2
    27     25     21   1
    28     23     26   1
    29     26     27   2
    30     27     28   1
    31     28     29   2
    32     29     24   1
    33      7     25   1
    34      2     30   1
    35      3     31   1
    36      5     32   1
    37      6     33   1
    38      9     34   1
    39     10     35   1
    40     12     36   1
    41     13     37   1
    42     14     38   1
    43     14     39   1
    44     14     40   1
    45     15     41   1
    46     15     42   1
    47     15     43   1
    48     16     44   1
    49     17     45   1
    50     18     46   1
    51     19     47   1
    52     26     48   1
    53     27     49   1
    54     28     50   1
    55     29     51   1
    56     52     53   2
    57     53     54   1
    58     54     55   2
    59     55     56   1
    60     56     57   2
    61     57     52   1
    62     54     58   1
    63     55     59   1
    64     57     60   1
    65     22     52   1
