# Produced with molli package
@<TRIPOS>MOLECULE
C_3_L
66 72 0 0 0
SMALL
USER_CHARGES

@<TRIPOS>ATOM
     1 C      -5.853550     4.279014     0.251392 C          1 UNL1 0.000
     2 C      -6.451196     3.132637    -0.275714 C          1 UNL1 0.000
     3 C      -5.783602     1.900283    -0.241985 C          1 UNL1 0.000
     4 C      -4.518255     1.764621     0.354077 C          1 UNL1 0.000
     5 C      -3.915679     2.942054     0.837734 C          1 UNL1 0.000
     6 C      -4.572867     4.176705     0.795059 C          1 UNL1 0.000
     7 N      -3.838571     0.485345     0.440408 N          1 UNL1 0.000
     8 C      -4.520513    -0.793428     0.519046 C          1 UNL1 0.000
     9 C      -5.818733    -0.918056     1.043144 C          1 UNL1 0.000
    10 C      -6.485021    -2.151142     1.072770 C          1 UNL1 0.000
    11 C      -5.861141    -3.307714     0.601611 C          1 UNL1 0.000
    12 C      -4.544083    -3.219457     0.150649 C          1 UNL1 0.000
    13 C      -3.887836    -1.983181     0.109222 C          1 UNL1 0.000
    14 C      -6.569539     5.595984     0.266580 C          1 UNL1 0.000
    15 C      -6.564310    -4.631212     0.639678 C          1 UNL1 0.000
    16 C      -2.370006     0.420274     2.945696 C          1 UNL1 0.000
    17 C      -1.698599     0.432285     4.166438 C          1 UNL1 0.000
    18 C      -0.317583     0.473932     4.179212 C          1 UNL1 0.000
    19 C       0.379464     0.497597     2.971218 C          1 UNL1 0.000
    20 C      -0.274793     0.489165     1.710211 C          1 UNL1 0.000
    21 C      -1.687528     0.456134     1.702109 C          1 UNL1 0.000
    22 C       0.437798     0.521899     0.468449 C          1 UNL1 0.000
    23 C      -0.258198     0.544636    -0.782347 C          1 UNL1 0.000
    24 C      -1.671714     0.539276    -0.792598 C          1 UNL1 0.000
    25 C      -2.375317     0.489636     0.450171 C          1 UNL1 0.000
    26 C       0.412901     0.568072    -2.034132 C          1 UNL1 0.000
    27 C      -0.268935     0.583514    -3.251080 C          1 UNL1 0.000
    28 C      -1.650784     0.579084    -3.256515 C          1 UNL1 0.000
    29 C      -2.338439     0.559328    -2.044851 C          1 UNL1 0.000
    30 H      -7.442339     3.183812    -0.720490 H          1 UNL1 0.000
    31 H      -6.271152     1.045951    -0.704071 H          1 UNL1 0.000
    32 H      -2.924604     2.921819     1.282306 H          1 UNL1 0.000
    33 H      -4.074359     5.054660     1.200075 H          1 UNL1 0.000
    34 H      -6.334416    -0.055375     1.456267 H          1 UNL1 0.000
    35 H      -7.496838    -2.196061     1.469414 H          1 UNL1 0.000
    36 H      -4.014405    -4.109201    -0.182610 H          1 UNL1 0.000
    37 H      -2.869063    -1.973271    -0.268543 H          1 UNL1 0.000
    38 H      -5.937544     6.379089    -0.164637 H          1 UNL1 0.000
    39 H      -6.825712     5.868892     1.295664 H          1 UNL1 0.000
    40 H      -7.495598     5.556773    -0.315780 H          1 UNL1 0.000
    41 H      -6.233434    -5.270331    -0.186236 H          1 UNL1 0.000
    42 H      -7.646567    -4.502076     0.533200 H          1 UNL1 0.000
    43 H      -6.359076    -5.140490     1.585928 H          1 UNL1 0.000
    44 H      -3.457992     0.396424     2.972182 H          1 UNL1 0.000
    45 H      -2.258955     0.414759     5.096837 H          1 UNL1 0.000
    46 H       0.223985     0.490161     5.120853 H          1 UNL1 0.000
    47 H       1.466324     0.533078     3.029114 H          1 UNL1 0.000
    48 H       1.500995     0.572250    -2.077201 H          1 UNL1 0.000
    49 H       0.284809     0.598679    -4.185668 H          1 UNL1 0.000
    50 H      -2.199149     0.588702    -4.194199 H          1 UNL1 0.000
    51 H      -3.426127     0.549202    -2.085938 H          1 UNL1 0.000
    52 C       1.920581     0.524508     0.481152 C          1 UNL1 0.000
    53 C       2.630625    -0.685458     0.516963 C          1 UNL1 0.000
    54 C       4.029158    -0.717895     0.545926 C          1 UNL1 0.000
    55 C       4.702825     0.507367     0.536640 C          1 UNL1 0.000
    56 C       4.038591     1.732717     0.496923 C          1 UNL1 0.000
    57 C       2.630388     1.740960     0.468314 C          1 UNL1 0.000
    58 N       6.052334     0.779503     0.563381 N          1 UNL1 0.000
    59 C       6.262996     2.132724     0.540118 C          1 UNL1 0.000
    60 C       5.033329     2.749107     0.497581 C          1 UNL1 0.000
    61 H       2.083967    -1.627531     0.527591 H          1 UNL1 0.000
    62 H       4.562250    -1.662287     0.577449 H          1 UNL1 0.000
    63 H       2.094945     2.686501     0.440192 H          1 UNL1 0.000
    64 H       6.777583     0.076591     0.596809 H          1 UNL1 0.000
    65 H       7.265413     2.538635     0.556255 H          1 UNL1 0.000
    66 H       4.863272     3.817422     0.471491 H          1 UNL1 0.000
@<TRIPOS>BOND
     1      1      2   2
     2      2      3   1
     3      3      4   2
     4      4      5   1
     5      5      6   2
     6      6      1   1
     7      4      7   1
     8      7      8   1
     9      8      9   2
    10      9     10   1
    11     10     11   2
    12     11     12   1
    13     12     13   2
    14     13      8   1
    15      1     14   1
    16     11     15   1
    17     16     17   2
    18     17     18   1
    19     18     19   2
    20     19     20   1
    21     20     21   2
    22     21     16   1
    23     20     22   1
    24     22     23   2
    25     23     24   1
    26     24     25   2
    27     25     21   1
    28     23     26   1
    29     26     27   2
    30     27     28   1
    31     28     29   2
    32     29     24   1
    33      7     25   1
    34      2     30   1
    35      3     31   1
    36      5     32   1
    37      6     33   1
    38      9     34   1
    39     10     35   1
    40     12     36   1
    41     13     37   1
    42     14     38   1
    43     14     39   1
    44     14     40   1
    45     15     41   1
    46     15     42   1
    47     15     43   1
    48     16     44   1
    49     17     45   1
    50     18     46   1
    51     19     47   1
    52     26     48   1
    53     27     49   1
    54     28     50   1
    55     29     51   1
    56     52     53   2
    57     53     54   1
    58     54     55   2
    59     55     56   1
    60     56     57   2
    61     57     52   1
    62     55     58   1
    63     58     59   1
    64     59     60   2
    65     60     56   1
    66     53     61   1
    67     54     62   1
    68     57     63   1
    69     58     64   1
    70     59     65   1
    71     60     66   1
    72     22     52   1
