# Produced with molli package
@<TRIPOS>MOLECULE
C_3_T
65 70 0 0 0
SMALL
USER_CHARGES

@<TRIPOS>ATOM
     1 C      -5.946522     4.292493     0.416908 C          1 UNL1 0.000
     2 C      -6.608880     3.132771     0.009457 C          1 UNL1 0.000
     3 C      -5.963936     1.887179     0.050113 C          1 UNL1 0.000
     4 C      -4.657291     1.749814     0.546704 C          1 UNL1 0.000
     5 C      -4.002051     2.938064     0.931087 C          1 UNL1 0.000
     6 C      -4.633697     4.185630     0.873119 C          1 UNL1 0.000
     7 N      -3.977949     0.467721     0.621099 N          1 UNL1 0.000
     8 C      -4.644077    -0.820422     0.688825 C          1 UNL1 0.000
     9 C      -5.923183    -0.979965     1.246237 C          1 UNL1 0.000
    10 C      -6.568655    -2.225539     1.259472 C          1 UNL1 0.000
    11 C      -5.938886    -3.360962     0.744263 C          1 UNL1 0.000
    12 C      -4.637919    -3.239496     0.259389 C          1 UNL1 0.000
    13 C      -4.005180    -1.991329     0.232361 C          1 UNL1 0.000
    14 C      -6.639385     5.621917     0.418545 C          1 UNL1 0.000
    15 C      -6.629623    -4.691455     0.759198 C          1 UNL1 0.000
    16 C      -2.456413     0.371634     3.090983 C          1 UNL1 0.000
    17 C      -1.758628     0.354323     4.296826 C          1 UNL1 0.000
    18 C      -0.377237     0.383032     4.280290 C          1 UNL1 0.000
    19 C       0.294138     0.428196     3.058139 C          1 UNL1 0.000
    20 C      -0.387541     0.451516     1.811881 C          1 UNL1 0.000
    21 C      -1.799792     0.422888     1.834169 C          1 UNL1 0.000
    22 C       0.296925     0.511120     0.555216 C          1 UNL1 0.000
    23 C      -0.426622     0.551608    -0.680269 C          1 UNL1 0.000
    24 C      -1.838864     0.544595    -0.659802 C          1 UNL1 0.000
    25 C      -2.513936     0.474995     0.597804 C          1 UNL1 0.000
    26 C       0.215924     0.594671    -1.946729 C          1 UNL1 0.000
    27 C      -0.493012     0.626917    -3.147903 C          1 UNL1 0.000
    28 C      -1.874377     0.622025    -3.122622 C          1 UNL1 0.000
    29 C      -2.534189     0.583819    -1.896314 C          1 UNL1 0.000
    30 H      -7.632921     3.185493    -0.353505 H          1 UNL1 0.000
    31 H      -6.505756     1.028738    -0.336113 H          1 UNL1 0.000
    32 H      -2.979669     2.919766     1.298909 H          1 UNL1 0.000
    33 H      -4.085926     5.069685     1.191966 H          1 UNL1 0.000
    34 H      -6.439144    -0.138071     1.699427 H          1 UNL1 0.000
    35 H      -7.569291    -2.299310     1.679701 H          1 UNL1 0.000
    36 H      -4.101404    -4.109550    -0.112455 H          1 UNL1 0.000
    37 H      -2.997608    -1.957594    -0.173023 H          1 UNL1 0.000
    38 H      -5.945840     6.420633     0.134444 H          1 UNL1 0.000
    39 H      -7.034726     5.834975     1.416821 H          1 UNL1 0.000
    40 H      -7.467054     5.638435    -0.297696 H          1 UNL1 0.000
    41 H      -6.128207    -5.406249     0.097440 H          1 UNL1 0.000
    42 H      -7.660847    -4.590456     0.405057 H          1 UNL1 0.000
    43 H      -6.634781    -5.103630     1.772589 H          1 UNL1 0.000
    44 H      -3.543690     0.356004     3.140249 H          1 UNL1 0.000
    45 H      -2.298998     0.322122     5.238681 H          1 UNL1 0.000
    46 H       0.184293     0.372603     5.210310 H          1 UNL1 0.000
    47 H       1.382127     0.451724     3.092586 H          1 UNL1 0.000
    48 H       1.302581     0.598899    -2.014338 H          1 UNL1 0.000
    49 H       0.039593     0.654674    -4.094381 H          1 UNL1 0.000
    50 H      -2.444098     0.644767    -4.047259 H          1 UNL1 0.000
    51 H      -3.622562     0.573748    -1.912952 H          1 UNL1 0.000
    52 C       1.777796     0.536294     0.532086 C          1 UNL1 0.000
    53 C       2.514483    -0.657187     0.498430 C          1 UNL1 0.000
    54 C       3.911234    -0.632862     0.471715 C          1 UNL1 0.000
    55 C       4.598512     0.585597     0.479378 C          1 UNL1 0.000
    56 C       3.868683     1.779437     0.512569 C          1 UNL1 0.000
    57 C       2.472426     1.755136     0.539452 C          1 UNL1 0.000
    58 C       6.097401     0.626673     0.444536 C          1 UNL1 0.000
    59 H       1.997115    -1.614560     0.491802 H          1 UNL1 0.000
    60 H       4.455753    -1.573893     0.444345 H          1 UNL1 0.000
    61 H       4.383658     2.737524     0.516722 H          1 UNL1 0.000
    62 H       1.922355     2.693759     0.564184 H          1 UNL1 0.000
    63 H       6.480589     1.164477     1.317693 H          1 UNL1 0.000
    64 H       6.438850     1.128356    -0.466553 H          1 UNL1 0.000
    65 H       6.527332    -0.380234     0.456439 H          1 UNL1 0.000
@<TRIPOS>BOND
     1      1      2   2
     2      2      3   1
     3      3      4   2
     4      4      5   1
     5      5      6   2
     6      6      1   1
     7      4      7   1
     8      7      8   1
     9      8      9   2
    10      9     10   1
    11     10     11   2
    12     11     12   1
    13     12     13   2
    14     13      8   1
    15      1     14   1
    16     11     15   1
    17     16     17   2
    18     17     18   1
    19     18     19   2
    20     19     20   1
    21     20     21   2
    22     21     16   1
    23     20     22   1
    24     22     23   2
    25     23     24   1
    26     24     25   2
    27     25     21   1
    28     23     26   1
    29     26     27   2
    30     27     28   1
    31     28     29   2
    32     29     24   1
    33      7     25   1
    34      2     30   1
    35      3     31   1
    36      5     32   1
    37      6     33   1
    38      9     34   1
    39     10     35   1
    40     12     36   1
    41     13     37   1
    42     14     38   1
    43     14     39   1
    44     14     40   1
    45     15     41   1
    46     15     42   1
    47     15     43   1
    48     16     44   1
    49     17     45   1
    50     18     46   1
    51     19     47   1
    52     26     48   1
    53     27     49   1
    54     28     50   1
    55     29     51   1
    56     52     53   2
    57     53     54   1
    58     54     55   2
    59     55     56   1
    60     56     57   2
    61     57     52   1
    62     55     58   1
    63     53     59   1
    64     54     60   1
    65     56     61   1
    66     57     62   1
    67     58     63   1
    68     58     64   1
    69     58     65   1
    70     22     52   1
