# Produced with molli package
@<TRIPOS>MOLECULE
C_3_R
63 68 0 0 0
SMALL
USER_CHARGES

@<TRIPOS>ATOM
     1 C      -5.952380     4.317227     0.657047 C          1 UNL1 0.000
     2 C      -6.543734     3.170978     1.193472 C          1 UNL1 0.000
     3 C      -5.869823     1.943014     1.169560 C          1 UNL1 0.000
     4 C      -4.596200     1.815145     0.588628 C          1 UNL1 0.000
     5 C      -4.000463     2.990331     0.093515 C          1 UNL1 0.000
     6 C      -4.668255     4.220402     0.120658 C          1 UNL1 0.000
     7 N      -3.906004     0.541386     0.535343 N          1 UNL1 0.000
     8 C      -4.587740    -0.735834     0.468233 C          1 UNL1 0.000
     9 C      -5.837888    -0.875549    -0.159182 C          1 UNL1 0.000
    10 C      -6.502839    -2.108106    -0.201527 C          1 UNL1 0.000
    11 C      -5.922412    -3.247143     0.359962 C          1 UNL1 0.000
    12 C      -4.663526    -3.136130     0.952759 C          1 UNL1 0.000
    13 C      -4.004972    -1.902110     0.997791 C          1 UNL1 0.000
    14 C      -6.685802     5.624753     0.673062 C          1 UNL1 0.000
    15 C      -6.632118    -4.567814     0.350975 C          1 UNL1 0.000
    16 C      -2.420823     0.687465     3.025998 C          1 UNL1 0.000
    17 C      -1.741009     0.724920     4.241469 C          1 UNL1 0.000
    18 C      -0.359473     0.704532     4.245471 C          1 UNL1 0.000
    19 C       0.329386     0.646686     3.033935 C          1 UNL1 0.000
    20 C      -0.333484     0.600249     1.778109 C          1 UNL1 0.000
    21 C      -1.747166     0.620601     1.779129 C          1 UNL1 0.000
    22 C       0.369203     0.525212     0.533281 C          1 UNL1 0.000
    23 C      -0.335408     0.489872    -0.712613 C          1 UNL1 0.000
    24 C      -1.748900     0.474674    -0.711914 C          1 UNL1 0.000
    25 C      -2.444127     0.543951     0.534465 C          1 UNL1 0.000
    26 C       0.325398     0.478827    -1.970868 C          1 UNL1 0.000
    27 C      -0.365142     0.434923    -3.181994 C          1 UNL1 0.000
    28 C      -1.746195     0.398680    -3.175633 C          1 UNL1 0.000
    29 C      -2.423961     0.418705    -1.958632 C          1 UNL1 0.000
    30 H      -7.534606     3.223734     1.639028 H          1 UNL1 0.000
    31 H      -6.354440     1.086500     1.631076 H          1 UNL1 0.000
    32 H      -3.006067     2.971784    -0.344123 H          1 UNL1 0.000
    33 H      -4.170864     5.097449    -0.287504 H          1 UNL1 0.000
    34 H      -6.310114    -0.024002    -0.642600 H          1 UNL1 0.000
    35 H      -7.476961    -2.165849    -0.681771 H          1 UNL1 0.000
    36 H      -4.183696    -4.008250     1.391506 H          1 UNL1 0.000
    37 H      -3.031904    -1.870565     1.479452 H          1 UNL1 0.000
    38 H      -6.106796     6.415856     0.184834 H          1 UNL1 0.000
    39 H      -6.881267     5.936552     1.703726 H          1 UNL1 0.000
    40 H      -7.636157     5.530138     0.137652 H          1 UNL1 0.000
    41 H      -5.991579    -5.340557    -0.086327 H          1 UNL1 0.000
    42 H      -7.553244    -4.525154    -0.239129 H          1 UNL1 0.000
    43 H      -6.896941    -4.857329     1.373164 H          1 UNL1 0.000
    44 H      -3.508855     0.702345     3.060320 H          1 UNL1 0.000
    45 H      -2.295139     0.772228     5.174681 H          1 UNL1 0.000
    46 H       0.187796     0.739883     5.183375 H          1 UNL1 0.000
    47 H       1.416765     0.649780     3.085513 H          1 UNL1 0.000
    48 H       1.411385     0.527281    -2.027022 H          1 UNL1 0.000
    49 H       0.179672     0.436655    -4.122062 H          1 UNL1 0.000
    50 H      -2.302167     0.367615    -4.108490 H          1 UNL1 0.000
    51 H      -3.512024     0.406661    -1.992024 H          1 UNL1 0.000
    52 C       1.844119     0.447134     0.535120 C          1 UNL1 0.000
    53 N       2.504983     1.625844     0.681055 N          1 UNL1 0.000
    54 C       3.859887     1.590971     0.686602 C          1 UNL1 0.000
    55 C       4.579935     0.418341     0.538916 C          1 UNL1 0.000
    56 C       3.903301    -0.790738     0.386929 C          1 UNL1 0.000
    57 C       2.509499    -0.774440     0.393122 C          1 UNL1 0.000
    58 N       6.027273     0.464423     0.538600 N          1 UNL1 0.000
    59 O       6.622507    -0.375871    -0.149821 O          1 UNL1 0.000
    60 O       6.571162     1.337373     1.227254 O          1 UNL1 0.000
    61 H       4.339633     2.559036     0.807469 H          1 UNL1 0.000
    62 H       4.437088    -1.730509     0.270130 H          1 UNL1 0.000
    63 H       1.946906    -1.697598     0.282488 H          1 UNL1 0.000
@<TRIPOS>BOND
     1      1      2   2
     2      2      3   1
     3      3      4   2
     4      4      5   1
     5      5      6   2
     6      6      1   1
     7      4      7   1
     8      7      8   1
     9      8      9   2
    10      9     10   1
    11     10     11   2
    12     11     12   1
    13     12     13   2
    14     13      8   1
    15      1     14   1
    16     11     15   1
    17     16     17   2
    18     17     18   1
    19     18     19   2
    20     19     20   1
    21     20     21   2
    22     21     16   1
    23     20     22   1
    24     22     23   2
    25     23     24   1
    26     24     25   2
    27     25     21   1
    28     23     26   1
    29     26     27   2
    30     27     28   1
    31     28     29   2
    32     29     24   1
    33      7     25   1
    34      2     30   1
    35      3     31   1
    36      5     32   1
    37      6     33   1
    38      9     34   1
    39     10     35   1
    40     12     36   1
    41     13     37   1
    42     14     38   1
    43     14     39   1
    44     14     40   1
    45     15     41   1
    46     15     42   1
    47     15     43   1
    48     16     44   1
    49     17     45   1
    50     18     46   1
    51     19     47   1
    52     26     48   1
    53     27     49   1
    54     28     50   1
    55     29     51   1
    56     52     53   2
    57     53     54   1
    58     54     55   2
    59     55     56   1
    60     56     57   2
    61     57     52   1
    62     58     59   2
    63     58     60   1
    64     55     58   1
    65     54     61   1
    66     56     62   1
    67     57     63   1
    68     22     52   1
