# Produced with molli package
@<TRIPOS>MOLECULE
C_4_N
51 54 0 0 0
SMALL
USER_CHARGES

@<TRIPOS>ATOM
     1 C      -5.215719     4.346432     1.826460 C          1 UNL1 0.000
     2 C      -5.805238     3.223110     2.413120 C          1 UNL1 0.000
     3 C      -5.148571     1.985480     2.404238 C          1 UNL1 0.000
     4 C      -3.891924     1.828946     1.796093 C          1 UNL1 0.000
     5 C      -3.300028     2.979129     1.240234 C          1 UNL1 0.000
     6 C      -3.950658     4.217936     1.252161 C          1 UNL1 0.000
     7 N      -3.213360     0.552441     1.766278 N          1 UNL1 0.000
     8 C      -3.905785    -0.714341     1.708631 C          1 UNL1 0.000
     9 C      -5.142268    -0.853375     1.056116 C          1 UNL1 0.000
    10 C      -5.815119    -2.081758     1.020277 C          1 UNL1 0.000
    11 C      -5.258105    -3.214360     1.618724 C          1 UNL1 0.000
    12 C      -4.016192    -3.100921     2.246863 C          1 UNL1 0.000
    13 C      -3.349402    -1.871376     2.285228 C          1 UNL1 0.000
    14 C      -5.923442     5.668191     1.842078 C          1 UNL1 0.000
    15 C      -5.974583    -4.531558     1.609092 C          1 UNL1 0.000
    16 C      -1.776481     0.545482     1.777448 C          1 UNL1 0.000
    17 C      -1.078488     0.730425     2.977581 C          1 UNL1 0.000
    18 C       0.312337     0.715948     2.974140 C          1 UNL1 0.000
    19 C       1.024319     0.612713     1.779328 C          1 UNL1 0.000
    20 C       0.335966     0.448473     0.572904 C          1 UNL1 0.000
    21 C      -1.062876     0.381411     0.578662 C          1 UNL1 0.000
    22 O       0.970588     0.866227     4.162162 O          1 UNL1 0.000
    23 C       1.519357    -0.377306     4.604750 C          1 UNL1 0.000
    24 H      -6.780859     3.302096     2.887527 H          1 UNL1 0.000
    25 H      -5.628959     1.144988     2.898802 H          1 UNL1 0.000
    26 H      -2.322810     2.928194     0.767750 H          1 UNL1 0.000
    27 H      -3.456678     5.076528     0.802984 H          1 UNL1 0.000
    28 H      -5.595152    -0.004690     0.549397 H          1 UNL1 0.000
    29 H      -6.776797    -2.141612     0.515777 H          1 UNL1 0.000
    30 H      -3.557770    -3.967564     2.718039 H          1 UNL1 0.000
    31 H      -2.392400    -1.829661     2.797931 H          1 UNL1 0.000
    32 H      -5.389068     6.415714     1.245996 H          1 UNL1 0.000
    33 H      -6.000294     6.042739     2.867464 H          1 UNL1 0.000
    34 H      -6.927734     5.565288     1.418428 H          1 UNL1 0.000
    35 H      -5.332050    -5.309699     1.184403 H          1 UNL1 0.000
    36 H      -6.888109    -4.488079     1.007325 H          1 UNL1 0.000
    37 H      -6.253947    -4.813953     2.629373 H          1 UNL1 0.000
    38 H      -1.621125     0.862629     3.909227 H          1 UNL1 0.000
    39 H       2.109687     0.663002     1.795304 H          1 UNL1 0.000
    40 H      -1.614457     0.263549    -0.351456 H          1 UNL1 0.000
    41 H       2.594453    -0.246639     4.758891 H          1 UNL1 0.000
    42 H       1.360846    -1.212381     3.910800 H          1 UNL1 0.000
    43 H       1.060083    -0.633765     5.564415 H          1 UNL1 0.000
    44 C       1.068734     0.412604    -0.682990 C          1 UNL1 0.000
    45 C       0.960275    -0.644240    -1.564209 C          1 UNL1 0.000
    46 S       1.913824    -0.421096    -2.969507 S          1 UNL1 0.000
    47 C       2.475794     1.095853    -2.415502 C          1 UNL1 0.000
    48 C       1.955693     1.419429    -1.181590 C          1 UNL1 0.000
    49 H       0.370701    -1.545184    -1.457369 H          1 UNL1 0.000
    50 H       3.157147     1.678807    -3.019819 H          1 UNL1 0.000
    51 H       2.185726     2.344830    -0.667084 H          1 UNL1 0.000
@<TRIPOS>BOND
     1      1      2   2
     2      2      3   1
     3      3      4   2
     4      4      5   1
     5      5      6   2
     6      6      1   1
     7      4      7   1
     8      7      8   1
     9      8      9   2
    10      9     10   1
    11     10     11   2
    12     11     12   1
    13     12     13   2
    14     13      8   1
    15      1     14   1
    16     11     15   1
    17     16     17   2
    18     17     18   1
    19     18     19   2
    20     19     20   1
    21     20     21   2
    22     21     16   1
    23     22     23   1
    24     18     22   1
    25      7     16   1
    26      2     24   1
    27      3     25   1
    28      5     26   1
    29      6     27   1
    30      9     28   1
    31     10     29   1
    32     12     30   1
    33     13     31   1
    34     14     32   1
    35     14     33   1
    36     14     34   1
    37     15     35   1
    38     15     36   1
    39     15     37   1
    40     17     38   1
    41     19     39   1
    42     21     40   1
    43     23     41   1
    44     23     42   1
    45     23     43   1
    46     44     45   2
    47     45     46   1
    48     46     47   1
    49     47     48   2
    50     48     44   1
    51     45     49   1
    52     47     50   1
    53     48     51   1
    54     20     44   1
