# Produced with molli package
@<TRIPOS>MOLECULE
C_4_L
58 62 0 0 0
SMALL
USER_CHARGES

@<TRIPOS>ATOM
     1 C      -5.237537     4.291902     1.645286 C          1 UNL1 0.000
     2 C      -5.837539     3.146468     1.118100 C          1 UNL1 0.000
     3 C      -5.169327     1.913361     1.144255 C          1 UNL1 0.000
     4 C      -3.900608     1.776143     1.732658 C          1 UNL1 0.000
     5 C      -3.297697     2.952584     2.220062 C          1 UNL1 0.000
     6 C      -3.954099     4.188058     2.182097 C          1 UNL1 0.000
     7 N      -3.218311     0.499831     1.815372 N          1 UNL1 0.000
     8 C      -3.896650    -0.777639     1.898942 C          1 UNL1 0.000
     9 C      -5.187444    -0.907629     2.439127 C          1 UNL1 0.000
    10 C      -5.850117    -2.142866     2.471303 C          1 UNL1 0.000
    11 C      -5.223397    -3.299808     2.002999 C          1 UNL1 0.000
    12 C      -3.923526    -3.201696     1.507223 C          1 UNL1 0.000
    13 C      -3.271866    -1.962790     1.462241 C          1 UNL1 0.000
    14 C      -5.950716     5.610583     1.663960 C          1 UNL1 0.000
    15 C      -5.952511    -4.610011     1.999020 C          1 UNL1 0.000
    16 C      -1.778494     0.507982     1.801866 C          1 UNL1 0.000
    17 C      -1.057763     0.473137     3.003442 C          1 UNL1 0.000
    18 C       0.330926     0.534240     2.968238 C          1 UNL1 0.000
    19 C       1.014820     0.610905     1.755462 C          1 UNL1 0.000
    20 C       0.315541     0.604703     0.539967 C          1 UNL1 0.000
    21 C      -1.087061     0.574481     0.578565 C          1 UNL1 0.000
    22 O       1.049752     0.609475     4.128708 O          1 UNL1 0.000
    23 C       1.317763    -0.694475     4.641674 C          1 UNL1 0.000
    24 H      -6.831264     3.198883     0.679095 H          1 UNL1 0.000
    25 H      -5.659734     1.059861     0.683575 H          1 UNL1 0.000
    26 H      -2.305745     2.929087     2.662768 H          1 UNL1 0.000
    27 H      -3.453342     5.065296     2.585900 H          1 UNL1 0.000
    28 H      -5.702090    -0.046371     2.856795 H          1 UNL1 0.000
    29 H      -6.861611    -2.190750     2.868847 H          1 UNL1 0.000
    30 H      -3.403218    -4.084445     1.142606 H          1 UNL1 0.000
    31 H      -2.264786    -1.943692     1.055255 H          1 UNL1 0.000
    32 H      -5.331650     6.385415     1.200221 H          1 UNL1 0.000
    33 H      -6.172351     5.900194     2.696585 H          1 UNL1 0.000
    34 H      -6.896270     5.564905     1.114325 H          1 UNL1 0.000
    35 H      -5.269327    -5.446815     1.818720 H          1 UNL1 0.000
    36 H      -6.711994    -4.612745     1.210578 H          1 UNL1 0.000
    37 H      -6.436860    -4.782943     2.965342 H          1 UNL1 0.000
    38 H      -1.583430     0.442448     3.952841 H          1 UNL1 0.000
    39 H       2.101135     0.663662     1.761706 H          1 UNL1 0.000
    40 H      -1.657203     0.599776    -0.348452 H          1 UNL1 0.000
    41 H       2.281789    -0.657137     5.158315 H          1 UNL1 0.000
    42 H       1.383241    -1.461042     3.860347 H          1 UNL1 0.000
    43 H       0.546769    -0.966252     5.368828 H          1 UNL1 0.000
    44 C       1.039675     0.617652    -0.736646 C          1 UNL1 0.000
    45 C       0.965481    -0.480030    -1.608111 C          1 UNL1 0.000
    46 C       1.670536    -0.515777    -2.817410 C          1 UNL1 0.000
    47 C       2.457971     0.593797    -3.136585 C          1 UNL1 0.000
    48 C       2.557100     1.709305    -2.306113 C          1 UNL1 0.000
    49 C       1.840518     1.718420    -1.093112 C          1 UNL1 0.000
    50 N       3.250797     0.836541    -4.235263 N          1 UNL1 0.000
    51 C       3.842362     2.067191    -4.130717 C          1 UNL1 0.000
    52 C       3.429946     2.632118    -2.945117 C          1 UNL1 0.000
    53 H       0.356831    -1.341820    -1.337837 H          1 UNL1 0.000
    54 H       1.606693    -1.377926    -3.473034 H          1 UNL1 0.000
    55 H       1.908496     2.582190    -0.436849 H          1 UNL1 0.000
    56 H       3.373479     0.193781    -5.006153 H          1 UNL1 0.000
    57 H       4.502432     2.433882    -4.904670 H          1 UNL1 0.000
    58 H       3.723256     3.604738    -2.573098 H          1 UNL1 0.000
@<TRIPOS>BOND
     1      1      2   2
     2      2      3   1
     3      3      4   2
     4      4      5   1
     5      5      6   2
     6      6      1   1
     7      4      7   1
     8      7      8   1
     9      8      9   2
    10      9     10   1
    11     10     11   2
    12     11     12   1
    13     12     13   2
    14     13      8   1
    15      1     14   1
    16     11     15   1
    17     16     17   2
    18     17     18   1
    19     18     19   2
    20     19     20   1
    21     20     21   2
    22     21     16   1
    23     22     23   1
    24     18     22   1
    25      7     16   1
    26      2     24   1
    27      3     25   1
    28      5     26   1
    29      6     27   1
    30      9     28   1
    31     10     29   1
    32     12     30   1
    33     13     31   1
    34     14     32   1
    35     14     33   1
    36     14     34   1
    37     15     35   1
    38     15     36   1
    39     15     37   1
    40     17     38   1
    41     19     39   1
    42     21     40   1
    43     23     41   1
    44     23     42   1
    45     23     43   1
    46     44     45   2
    47     45     46   1
    48     46     47   2
    49     47     48   1
    50     48     49   2
    51     49     44   1
    52     47     50   1
    53     50     51   1
    54     51     52   2
    55     52     48   1
    56     45     53   1
    57     46     54   1
    58     49     55   1
    59     50     56   1
    60     51     57   1
    61     52     58   1
    62     20     44   1
