# Produced with molli package
@<TRIPOS>MOLECULE
C_4_K
56 59 0 0 0
SMALL
USER_CHARGES

@<TRIPOS>ATOM
     1 C      -5.156143     4.372140     1.967776 C          1 UNL1 0.000
     2 C      -5.782714     3.228848     2.469772 C          1 UNL1 0.000
     3 C      -5.138814     1.983641     2.429748 C          1 UNL1 0.000
     4 C      -3.863940     1.833248     1.858830 C          1 UNL1 0.000
     5 C      -3.233717     3.007263     1.399305 C          1 UNL1 0.000
     6 C      -3.866172     4.255156     1.451811 C          1 UNL1 0.000
     7 N      -3.200933     0.547512     1.770655 N          1 UNL1 0.000
     8 C      -3.896958    -0.720797     1.708875 C          1 UNL1 0.000
     9 C      -5.176029    -0.847672     1.141687 C          1 UNL1 0.000
    10 C      -5.853391    -2.075505     1.125916 C          1 UNL1 0.000
    11 C      -5.254957    -3.224668     1.646811 C          1 UNL1 0.000
    12 C      -3.964035    -3.129991     2.167938 C          1 UNL1 0.000
    13 C      -3.297549    -1.899572     2.194825 C          1 UNL1 0.000
    14 C      -5.853354     5.699026     2.006459 C          1 UNL1 0.000
    15 C      -5.973301    -4.540787     1.662900 C          1 UNL1 0.000
    16 C      -1.762285     0.529223     1.733889 C          1 UNL1 0.000
    17 C      -1.024465     0.626320     2.921158 C          1 UNL1 0.000
    18 C       0.365135     0.592933     2.869153 C          1 UNL1 0.000
    19 C       1.031940     0.548278     1.646426 C          1 UNL1 0.000
    20 C       0.311894     0.473595     0.445782 C          1 UNL1 0.000
    21 C      -1.088928     0.434724     0.502873 C          1 UNL1 0.000
    22 O       1.115638     0.666757     4.010650 O          1 UNL1 0.000
    23 C       1.096478    -0.587520     4.694259 C          1 UNL1 0.000
    24 H      -6.779199     3.296636     2.900959 H          1 UNL1 0.000
    25 H      -5.652652     1.133006     2.869491 H          1 UNL1 0.000
    26 H      -2.234909     2.973605     0.973310 H          1 UNL1 0.000
    27 H      -3.338413     5.129507     1.077688 H          1 UNL1 0.000
    28 H      -5.666855     0.009694     0.688374 H          1 UNL1 0.000
    29 H      -6.852993    -2.120843     0.699355 H          1 UNL1 0.000
    30 H      -3.466629    -4.011395     2.566634 H          1 UNL1 0.000
    31 H      -2.301033    -1.879561     2.626527 H          1 UNL1 0.000
    32 H      -5.272187     6.472048     1.492138 H          1 UNL1 0.000
    33 H      -6.001635     6.018859     3.042377 H          1 UNL1 0.000
    34 H      -6.824986     5.630253     1.506388 H          1 UNL1 0.000
    35 H      -5.389309    -5.298497     1.130600 H          1 UNL1 0.000
    36 H      -6.953028    -4.471035     1.179513 H          1 UNL1 0.000
    37 H      -6.130003    -4.869246     2.695780 H          1 UNL1 0.000
    38 H      -1.538619     0.716081     3.873363 H          1 UNL1 0.000
    39 H       2.119077     0.579135     1.633588 H          1 UNL1 0.000
    40 H      -1.671966     0.370869    -0.414051 H          1 UNL1 0.000
    41 H       1.864732    -0.557008     5.472582 H          1 UNL1 0.000
    42 H       1.334110    -1.418688     4.019471 H          1 UNL1 0.000
    43 H       0.128015    -0.754117     5.177134 H          1 UNL1 0.000
    44 C       1.017465     0.478520    -0.836663 C          1 UNL1 0.000
    45 C       1.164717     1.676759    -1.557101 C          1 UNL1 0.000
    46 C       1.881725     1.709046    -2.755509 C          1 UNL1 0.000
    47 C       2.450410     0.528073    -3.242926 C          1 UNL1 0.000
    48 C       2.303157    -0.679554    -2.550436 C          1 UNL1 0.000
    49 C       1.589505    -0.696980    -1.348546 C          1 UNL1 0.000
    50 N       3.219847     0.556850    -4.487565 N          1 UNL1 0.000
    51 O       3.702595     1.644884    -4.837469 O          1 UNL1 0.000
    52 O       3.343915    -0.505210    -5.110883 O          1 UNL1 0.000
    53 H       0.730604     2.598768    -1.172173 H          1 UNL1 0.000
    54 H       1.990730     2.651762    -3.287686 H          1 UNL1 0.000
    55 H       2.743459    -1.601699    -2.923320 H          1 UNL1 0.000
    56 H       1.485064    -1.634172    -0.803921 H          1 UNL1 0.000
@<TRIPOS>BOND
     1      1      2   2
     2      2      3   1
     3      3      4   2
     4      4      5   1
     5      5      6   2
     6      6      1   1
     7      4      7   1
     8      7      8   1
     9      8      9   2
    10      9     10   1
    11     10     11   2
    12     11     12   1
    13     12     13   2
    14     13      8   1
    15      1     14   1
    16     11     15   1
    17     16     17   2
    18     17     18   1
    19     18     19   2
    20     19     20   1
    21     20     21   2
    22     21     16   1
    23     22     23   1
    24     18     22   1
    25      7     16   1
    26      2     24   1
    27      3     25   1
    28      5     26   1
    29      6     27   1
    30      9     28   1
    31     10     29   1
    32     12     30   1
    33     13     31   1
    34     14     32   1
    35     14     33   1
    36     14     34   1
    37     15     35   1
    38     15     36   1
    39     15     37   1
    40     17     38   1
    41     19     39   1
    42     21     40   1
    43     23     41   1
    44     23     42   1
    45     23     43   1
    46     44     45   2
    47     45     46   1
    48     46     47   2
    49     47     48   1
    50     48     49   2
    51     49     44   1
    52     50     51   2
    53     50     52   1
    54     47     50   1
    55     45     53   1
    56     46     54   1
    57     48     55   1
    58     49     56   1
    59     20     44   1
