# Produced with molli package
@<TRIPOS>MOLECULE
C_4_T
57 60 0 0 0
SMALL
USER_CHARGES

@<TRIPOS>ATOM
     1 C      -5.243292     4.259144     1.707970 C          1 UNL1 0.000
     2 C      -5.781765     3.126415     1.093286 C          1 UNL1 0.000
     3 C      -5.090858     1.908040     1.117079 C          1 UNL1 0.000
     4 C      -3.854793     1.778859     1.773544 C          1 UNL1 0.000
     5 C      -3.312393     2.937827     2.357684 C          1 UNL1 0.000
     6 C      -3.998111     4.157566     2.332352 C          1 UNL1 0.000
     7 N      -3.155140     0.515735     1.832574 N          1 UNL1 0.000
     8 C      -3.833183    -0.760230     1.906234 C          1 UNL1 0.000
     9 C      -5.094151    -0.894413     2.512558 C          1 UNL1 0.000
    10 C      -5.757653    -2.127500     2.555473 C          1 UNL1 0.000
    11 C      -5.168398    -3.271611     2.011456 C          1 UNL1 0.000
    12 C      -3.899367    -3.165968     1.440793 C          1 UNL1 0.000
    13 C      -3.242362    -1.930478     1.393426 C          1 UNL1 0.000
    14 C      -5.981750     5.564149     1.718041 C          1 UNL1 0.000
    15 C      -5.892607    -4.584054     2.048251 C          1 UNL1 0.000
    16 C      -1.717542     0.529971     1.808192 C          1 UNL1 0.000
    17 C      -0.989060     0.412255     2.999952 C          1 UNL1 0.000
    18 C       0.402146     0.419378     2.960736 C          1 UNL1 0.000
    19 C       1.076993     0.527753     1.745850 C          1 UNL1 0.000
    20 C       0.368360     0.608545     0.538185 C          1 UNL1 0.000
    21 C      -1.033291     0.640344     0.584833 C          1 UNL1 0.000
    22 O       1.156314     0.394656     4.102148 O          1 UNL1 0.000
    23 C       1.040666    -0.859642     4.771115 C          1 UNL1 0.000
    24 H      -6.743448     3.177880     0.588038 H          1 UNL1 0.000
    25 H      -5.530077     1.057194     0.601819 H          1 UNL1 0.000
    26 H      -2.354100     2.905185     2.868887 H          1 UNL1 0.000
    27 H      -3.551888     5.025539     2.812891 H          1 UNL1 0.000
    28 H      -5.577049    -0.037343     2.975428 H          1 UNL1 0.000
    29 H      -6.739589    -2.185110     3.019950 H          1 UNL1 0.000
    30 H      -3.408493    -4.039853     1.018519 H          1 UNL1 0.000
    31 H      -2.263426    -1.898324     0.923028 H          1 UNL1 0.000
    32 H      -5.360553     6.355098     1.285646 H          1 UNL1 0.000
    33 H      -6.247153     5.836694     2.744813 H          1 UNL1 0.000
    34 H      -6.906209     5.507849     1.134220 H          1 UNL1 0.000
    35 H      -5.308768    -5.378425     1.571272 H          1 UNL1 0.000
    36 H      -6.845039    -4.503979     1.514212 H          1 UNL1 0.000
    37 H      -6.083326    -4.882241     3.083915 H          1 UNL1 0.000
    38 H      -1.516001     0.351297     3.947227 H          1 UNL1 0.000
    39 H       2.164710     0.536237     1.741651 H          1 UNL1 0.000
    40 H      -1.607166     0.708366    -0.337496 H          1 UNL1 0.000
    41 H       1.791546    -0.881680     5.566783 H          1 UNL1 0.000
    42 H       1.246026    -1.693415     4.090199 H          1 UNL1 0.000
    43 H       0.055362    -0.973202     5.233684 H          1 UNL1 0.000
    44 C       1.083478     0.607222    -0.741224 C          1 UNL1 0.000
    45 C       1.729959    -0.556977    -1.185322 C          1 UNL1 0.000
    46 C       2.429267    -0.575461    -2.394594 C          1 UNL1 0.000
    47 C       2.493060     0.571969    -3.189670 C          1 UNL1 0.000
    48 C       1.854519     1.738251    -2.751483 C          1 UNL1 0.000
    49 C       1.150871     1.753487    -1.542330 C          1 UNL1 0.000
    50 C       3.273549     0.573531    -4.470361 C          1 UNL1 0.000
    51 H       1.689419    -1.464015    -0.585328 H          1 UNL1 0.000
    52 H       2.922973    -1.492697    -2.706792 H          1 UNL1 0.000
    53 H       1.904159     2.646570    -3.347697 H          1 UNL1 0.000
    54 H       0.666241     2.672921    -1.220721 H          1 UNL1 0.000
    55 H       4.217273     1.110453    -4.332623 H          1 UNL1 0.000
    56 H       2.698836     1.054063    -5.268630 H          1 UNL1 0.000
    57 H       3.502178    -0.445932    -4.798852 H          1 UNL1 0.000
@<TRIPOS>BOND
     1      1      2   2
     2      2      3   1
     3      3      4   2
     4      4      5   1
     5      5      6   2
     6      6      1   1
     7      4      7   1
     8      7      8   1
     9      8      9   2
    10      9     10   1
    11     10     11   2
    12     11     12   1
    13     12     13   2
    14     13      8   1
    15      1     14   1
    16     11     15   1
    17     16     17   2
    18     17     18   1
    19     18     19   2
    20     19     20   1
    21     20     21   2
    22     21     16   1
    23     22     23   1
    24     18     22   1
    25      7     16   1
    26      2     24   1
    27      3     25   1
    28      5     26   1
    29      6     27   1
    30      9     28   1
    31     10     29   1
    32     12     30   1
    33     13     31   1
    34     14     32   1
    35     14     33   1
    36     14     34   1
    37     15     35   1
    38     15     36   1
    39     15     37   1
    40     17     38   1
    41     19     39   1
    42     21     40   1
    43     23     41   1
    44     23     42   1
    45     23     43   1
    46     44     45   2
    47     45     46   1
    48     46     47   2
    49     47     48   1
    50     48     49   2
    51     49     44   1
    52     47     50   1
    53     45     51   1
    54     46     52   1
    55     48     53   1
    56     49     54   1
    57     50     55   1
    58     50     56   1
    59     50     57   1
    60     20     44   1
