# Produced with molli package
@<TRIPOS>MOLECULE
C_4_M
55 58 0 0 0
SMALL
USER_CHARGES

@<TRIPOS>ATOM
     1 C      -5.192469     4.317262     1.611619 C          1 UNL1 0.000
     2 C      -5.839246     3.173494     1.141014 C          1 UNL1 0.000
     3 C      -5.194626     1.927360     1.161113 C          1 UNL1 0.000
     4 C      -3.911458     1.768735     1.709442 C          1 UNL1 0.000
     5 C      -3.259401     2.947140     2.129285 C          1 UNL1 0.000
     6 C      -3.885995     4.198107     2.083411 C          1 UNL1 0.000
     7 N      -3.259224     0.477018     1.826653 N          1 UNL1 0.000
     8 C      -3.952241    -0.796370     1.905455 C          1 UNL1 0.000
     9 C      -5.282542    -0.913769     2.340853 C          1 UNL1 0.000
    10 C      -5.964763    -2.139569     2.309288 C          1 UNL1 0.000
    11 C      -5.319934    -3.302188     1.885128 C          1 UNL1 0.000
    12 C      -3.966223    -3.230856     1.560261 C          1 UNL1 0.000
    13 C      -3.299080    -1.999384     1.564722 C          1 UNL1 0.000
    14 C      -5.889282     5.643727     1.659264 C          1 UNL1 0.000
    15 C      -6.045133    -4.612947     1.827539 C          1 UNL1 0.000
    16 C      -1.819353     0.461351     1.850830 C          1 UNL1 0.000
    17 C      -1.134731     0.404616     3.070441 C          1 UNL1 0.000
    18 C       0.255509     0.409366     3.077513 C          1 UNL1 0.000
    19 C       0.979837     0.458027     1.885668 C          1 UNL1 0.000
    20 C       0.311957     0.498703     0.652152 C          1 UNL1 0.000
    21 C      -1.091907     0.517335     0.649174 C          1 UNL1 0.000
    22 O       0.902644     0.462793     4.279602 O          1 UNL1 0.000
    23 C       1.380507    -0.823357     4.669735 C          1 UNL1 0.000
    24 H      -6.854154     3.235897     0.754642 H          1 UNL1 0.000
    25 H      -5.724601     1.082169     0.731422 H          1 UNL1 0.000
    26 H      -2.249040     2.915643     2.528197 H          1 UNL1 0.000
    27 H      -3.345964     5.073419     2.437680 H          1 UNL1 0.000
    28 H      -5.822084    -0.051062     2.721055 H          1 UNL1 0.000
    29 H      -7.008638    -2.170915     2.613930 H          1 UNL1 0.000
    30 H      -3.419156    -4.128251     1.280120 H          1 UNL1 0.000
    31 H      -2.252712    -2.004061     1.272635 H          1 UNL1 0.000
    32 H      -5.248478     6.429671     1.246690 H          1 UNL1 0.000
    33 H      -6.138825     5.894256     2.695778 H          1 UNL1 0.000
    34 H      -6.816404     5.631250     1.077484 H          1 UNL1 0.000
    35 H      -5.696036    -5.207147     0.975620 H          1 UNL1 0.000
    36 H      -7.121265    -4.461001     1.692458 H          1 UNL1 0.000
    37 H      -5.880257    -5.179739     2.748311 H          1 UNL1 0.000
    38 H      -1.687136     0.388355     4.005337 H          1 UNL1 0.000
    39 H       2.066204     0.484807     1.920875 H          1 UNL1 0.000
    40 H      -1.635575     0.557124    -0.293213 H          1 UNL1 0.000
    41 H       2.473996    -0.797823     4.691296 H          1 UNL1 0.000
    42 H       1.050949    -1.639255     4.015409 H          1 UNL1 0.000
    43 H       1.019804    -1.025163     5.682965 H          1 UNL1 0.000
    44 C       1.059292     0.522654    -0.608329 C          1 UNL1 0.000
    45 C       1.155959     1.700613    -1.364050 C          1 UNL1 0.000
    46 C       1.862192     1.720968    -2.571306 C          1 UNL1 0.000
    47 C       2.478354     0.558503    -3.043285 C          1 UNL1 0.000
    48 C       2.387164    -0.622207    -2.300943 C          1 UNL1 0.000
    49 C       1.684279    -0.637589    -1.091786 C          1 UNL1 0.000
    50 C       3.198313     0.576161    -4.282598 C          1 UNL1 0.000
    51 N       3.782231     0.588506    -5.286198 N          1 UNL1 0.000
    52 H       0.680765     2.614361    -1.010204 H          1 UNL1 0.000
    53 H       1.924541     2.648982    -3.136657 H          1 UNL1 0.000
    54 H       2.857454    -1.537062    -2.656887 H          1 UNL1 0.000
    55 H       1.616161    -1.567488    -0.529554 H          1 UNL1 0.000
@<TRIPOS>BOND
     1      1      2   2
     2      2      3   1
     3      3      4   2
     4      4      5   1
     5      5      6   2
     6      6      1   1
     7      4      7   1
     8      7      8   1
     9      8      9   2
    10      9     10   1
    11     10     11   2
    12     11     12   1
    13     12     13   2
    14     13      8   1
    15      1     14   1
    16     11     15   1
    17     16     17   2
    18     17     18   1
    19     18     19   2
    20     19     20   1
    21     20     21   2
    22     21     16   1
    23     22     23   1
    24     18     22   1
    25      7     16   1
    26      2     24   1
    27      3     25   1
    28      5     26   1
    29      6     27   1
    30      9     28   1
    31     10     29   1
    32     12     30   1
    33     13     31   1
    34     14     32   1
    35     14     33   1
    36     14     34   1
    37     15     35   1
    38     15     36   1
    39     15     37   1
    40     17     38   1
    41     19     39   1
    42     21     40   1
    43     23     41   1
    44     23     42   1
    45     23     43   1
    46     44     45   2
    47     45     46   1
    48     46     47   2
    49     47     48   1
    50     48     49   2
    51     49     44   1
    52     50     51   3
    53     47     50   1
    54     45     52   1
    55     46     53   1
    56     48     54   1
    57     49     55   1
    58     20     44   1
