# Produced with molli package
@<TRIPOS>MOLECULE
C_4_S
59 62 0 0 0
SMALL
USER_CHARGES

@<TRIPOS>ATOM
     1 C      -5.159105     4.306294     1.880086 C          1 UNL1 0.000
     2 C      -5.770399     3.159398     2.391577 C          1 UNL1 0.000
     3 C      -5.105180     1.924896     2.371883 C          1 UNL1 0.000
     4 C      -3.823231     1.787994     1.812932 C          1 UNL1 0.000
     5 C      -3.203690     2.968958     1.357192 C          1 UNL1 0.000
     6 C      -3.856699     4.207179     1.391885 C          1 UNL1 0.000
     7 N      -3.144850     0.509019     1.730984 N          1 UNL1 0.000
     8 C      -3.827085    -0.766913     1.655745 C          1 UNL1 0.000
     9 C      -5.111878    -0.900686     1.102520 C          1 UNL1 0.000
    10 C      -5.782429    -2.132211     1.089606 C          1 UNL1 0.000
    11 C      -5.169621    -3.280311     1.594795 C          1 UNL1 0.000
    12 C      -3.868983    -3.181693     2.090252 C          1 UNL1 0.000
    13 C      -3.210462    -1.946677     2.117169 C          1 UNL1 0.000
    14 C      -5.872635     5.624811     1.901803 C          1 UNL1 0.000
    15 C      -5.882647    -4.599041     1.620657 C          1 UNL1 0.000
    16 C      -1.705045     0.507930     1.716096 C          1 UNL1 0.000
    17 C      -0.986786     0.598863     2.915693 C          1 UNL1 0.000
    18 C       0.403658     0.590791     2.882928 C          1 UNL1 0.000
    19 C       1.087512     0.581398     1.668415 C          1 UNL1 0.000
    20 C       0.390257     0.507139     0.453254 C          1 UNL1 0.000
    21 C      -1.011426     0.437248     0.494034 C          1 UNL1 0.000
    22 O       1.146909     0.643526     4.030423 O          1 UNL1 0.000
    23 C       1.052674    -0.590799     4.743863 C          1 UNL1 0.000
    24 H      -6.772436     3.214557     2.811472 H          1 UNL1 0.000
    25 H      -5.609868     1.070857     2.815607 H          1 UNL1 0.000
    26 H      -2.198341     2.948425     0.945785 H          1 UNL1 0.000
    27 H      -3.336678     5.087884     1.021785 H          1 UNL1 0.000
    28 H      -5.615729    -0.045142     0.660359 H          1 UNL1 0.000
    29 H      -6.788787    -2.180333     0.679574 H          1 UNL1 0.000
    30 H      -3.358027    -4.063273     2.471026 H          1 UNL1 0.000
    31 H      -2.206084    -1.925230     2.530209 H          1 UNL1 0.000
    32 H      -5.393843     6.345968     1.230418 H          1 UNL1 0.000
    33 H      -5.870406     6.039448     2.914214 H          1 UNL1 0.000
    34 H      -6.907331     5.505183     1.563582 H          1 UNL1 0.000
    35 H      -5.313817    -5.349754     1.062924 H          1 UNL1 0.000
    36 H      -6.878098    -4.527740     1.170685 H          1 UNL1 0.000
    37 H      -6.005449    -4.937409     2.655015 H          1 UNL1 0.000
    38 H      -1.517304     0.664422     3.860682 H          1 UNL1 0.000
    39 H       2.174684     0.617263     1.675724 H          1 UNL1 0.000
    40 H      -1.582935     0.380923    -0.430793 H          1 UNL1 0.000
    41 H       1.893248    -0.638654     5.442663 H          1 UNL1 0.000
    42 H       1.123011    -1.458289     4.076099 H          1 UNL1 0.000
    43 H       0.124071    -0.630054     5.321946 H          1 UNL1 0.000
    44 C       1.114599     0.532932    -0.823320 C          1 UNL1 0.000
    45 C       1.038885    -0.536074    -1.725331 C          1 UNL1 0.000
    46 C       1.743598    -0.503165    -2.933935 C          1 UNL1 0.000
    47 C       2.534935     0.603515    -3.269711 C          1 UNL1 0.000
    48 C       2.620594     1.673468    -2.374997 C          1 UNL1 0.000
    49 C       1.913684     1.635994    -1.167029 C          1 UNL1 0.000
    50 C       3.263012     0.583940    -4.574716 C          1 UNL1 0.000
    51 C       4.021711     1.807207    -5.023304 C          1 UNL1 0.000
    52 O       3.258274    -0.436470    -5.258747 O          1 UNL1 0.000
    53 H       0.438957    -1.412816    -1.487735 H          1 UNL1 0.000
    54 H       1.672346    -1.352275    -3.611858 H          1 UNL1 0.000
    55 H       3.230176     2.547698    -2.580957 H          1 UNL1 0.000
    56 H       1.985469     2.485117    -0.488241 H          1 UNL1 0.000
    57 H       5.026075     1.794514    -4.592945 H          1 UNL1 0.000
    58 H       3.501380     2.729686    -4.757773 H          1 UNL1 0.000
    59 H       4.098604     1.792555    -6.115248 H          1 UNL1 0.000
@<TRIPOS>BOND
     1      1      2   2
     2      2      3   1
     3      3      4   2
     4      4      5   1
     5      5      6   2
     6      6      1   1
     7      4      7   1
     8      7      8   1
     9      8      9   2
    10      9     10   1
    11     10     11   2
    12     11     12   1
    13     12     13   2
    14     13      8   1
    15      1     14   1
    16     11     15   1
    17     16     17   2
    18     17     18   1
    19     18     19   2
    20     19     20   1
    21     20     21   2
    22     21     16   1
    23     22     23   1
    24     18     22   1
    25      7     16   1
    26      2     24   1
    27      3     25   1
    28      5     26   1
    29      6     27   1
    30      9     28   1
    31     10     29   1
    32     12     30   1
    33     13     31   1
    34     14     32   1
    35     14     33   1
    36     14     34   1
    37     15     35   1
    38     15     36   1
    39     15     37   1
    40     17     38   1
    41     19     39   1
    42     21     40   1
    43     23     41   1
    44     23     42   1
    45     23     43   1
    46     44     45   2
    47     45     46   1
    48     46     47   2
    49     47     48   1
    50     48     49   2
    51     49     44   1
    52     47     50   1
    53     50     51   1
    54     50     52   2
    55     45     53   1
    56     46     54   1
    57     48     55   1
    58     49     56   1
    59     51     57   1
    60     51     58   1
    61     51     59   1
    62     20     44   1
