# Produced with molli package
@<TRIPOS>MOLECULE
C_4_Q
52 55 0 0 0
SMALL
USER_CHARGES

@<TRIPOS>ATOM
     1 C      -5.130826     4.368999     1.523829 C          1 UNL1 0.000
     2 C      -5.786222     3.212057     1.096692 C          1 UNL1 0.000
     3 C      -5.146127     1.964429     1.151095 C          1 UNL1 0.000
     4 C      -3.848914     1.824768     1.672233 C          1 UNL1 0.000
     5 C      -3.203196     3.008290     2.085530 C          1 UNL1 0.000
     6 C      -3.831336     4.257168     2.017080 C          1 UNL1 0.000
     7 N      -3.174977     0.543269     1.751343 N          1 UNL1 0.000
     8 C      -3.856959    -0.732069     1.795798 C          1 UNL1 0.000
     9 C      -5.105272    -0.890553     2.419948 C          1 UNL1 0.000
    10 C      -5.768260    -2.126148     2.426597 C          1 UNL1 0.000
    11 C      -5.187333    -3.250361     1.833262 C          1 UNL1 0.000
    12 C      -3.925942    -3.123844     1.251936 C          1 UNL1 0.000
    13 C      -3.272877    -1.885915     1.236962 C          1 UNL1 0.000
    14 C      -5.813687     5.703639     1.501810 C          1 UNL1 0.000
    15 C      -5.907951    -4.565365     1.831007 C          1 UNL1 0.000
    16 C      -1.735961     0.537744     1.744056 C          1 UNL1 0.000
    17 C      -1.022729     0.463773     2.947340 C          1 UNL1 0.000
    18 C       0.367204     0.515938     2.922972 C          1 UNL1 0.000
    19 C       1.058780     0.639277     1.718021 C          1 UNL1 0.000
    20 C       0.365753     0.675603     0.498707 C          1 UNL1 0.000
    21 C      -1.036954     0.638041     0.528711 C          1 UNL1 0.000
    22 O       1.088523     0.530182     4.085426 O          1 UNL1 0.000
    23 C       1.201758    -0.790309     4.615436 C          1 UNL1 0.000
    24 H      -6.800465     3.268088     0.707595 H          1 UNL1 0.000
    25 H      -5.681774     1.104747     0.757871 H          1 UNL1 0.000
    26 H      -2.193316     2.982418     2.485746 H          1 UNL1 0.000
    27 H      -3.292867     5.139184     2.356834 H          1 UNL1 0.000
    28 H      -5.578628    -0.052650     2.925316 H          1 UNL1 0.000
    29 H      -6.743482    -2.202092     2.902547 H          1 UNL1 0.000
    30 H      -3.437342    -3.981620     0.795259 H          1 UNL1 0.000
    31 H      -2.300334    -1.839597     0.753865 H          1 UNL1 0.000
    32 H      -5.126164     6.481499     1.152631 H          1 UNL1 0.000
    33 H      -6.161732     5.961985     2.506997 H          1 UNL1 0.000
    34 H      -6.674359     5.700110     0.825368 H          1 UNL1 0.000
    35 H      -5.334169    -5.336432     1.305549 H          1 UNL1 0.000
    36 H      -6.872837    -4.466062     1.323272 H          1 UNL1 0.000
    37 H      -6.072609    -4.909186     2.856831 H          1 UNL1 0.000
    38 H      -1.556248     0.404480     3.891285 H          1 UNL1 0.000
    39 H       2.145623     0.676730     1.737173 H          1 UNL1 0.000
    40 H      -1.599361     0.674131    -0.403330 H          1 UNL1 0.000
    41 H       1.938153    -0.761941     5.424300 H          1 UNL1 0.000
    42 H       1.559244    -1.498509     3.859075 H          1 UNL1 0.000
    43 H       0.247531    -1.125505     5.034346 H          1 UNL1 0.000
    44 C       1.081924     0.723362    -0.774871 C          1 UNL1 0.000
    45 N       0.888150    -0.332744    -1.607229 N          1 UNL1 0.000
    46 C       1.584324    -0.306504    -2.766940 C          1 UNL1 0.000
    47 C       2.434540     0.733423    -3.100626 C          1 UNL1 0.000
    48 N       2.630190     1.796737    -2.290517 N          1 UNL1 0.000
    49 C       1.937316     1.765765    -1.124250 C          1 UNL1 0.000
    50 H       1.441621    -1.155918    -3.424884 H          1 UNL1 0.000
    51 H       2.985133     0.737605    -4.034384 H          1 UNL1 0.000
    52 H       2.087682     2.618488    -0.470686 H          1 UNL1 0.000
@<TRIPOS>BOND
     1      1      2   2
     2      2      3   1
     3      3      4   2
     4      4      5   1
     5      5      6   2
     6      6      1   1
     7      4      7   1
     8      7      8   1
     9      8      9   2
    10      9     10   1
    11     10     11   2
    12     11     12   1
    13     12     13   2
    14     13      8   1
    15      1     14   1
    16     11     15   1
    17     16     17   2
    18     17     18   1
    19     18     19   2
    20     19     20   1
    21     20     21   2
    22     21     16   1
    23     22     23   1
    24     18     22   1
    25      7     16   1
    26      2     24   1
    27      3     25   1
    28      5     26   1
    29      6     27   1
    30      9     28   1
    31     10     29   1
    32     12     30   1
    33     13     31   1
    34     14     32   1
    35     14     33   1
    36     14     34   1
    37     15     35   1
    38     15     36   1
    39     15     37   1
    40     17     38   1
    41     19     39   1
    42     21     40   1
    43     23     41   1
    44     23     42   1
    45     23     43   1
    46     44     45   2
    47     45     46   1
    48     46     47   2
    49     47     48   1
    50     48     49   2
    51     49     44   1
    52     46     50   1
    53     47     51   1
    54     49     52   1
    55     20     44   1
