# Produced with molli package
@<TRIPOS>MOLECULE
C_4_P
58 61 0 0 0
SMALL
USER_CHARGES

@<TRIPOS>ATOM
     1 C      -5.221741     4.332129     2.000679 C          1 UNL1 0.000
     2 C      -5.776040     3.177405     2.559455 C          1 UNL1 0.000
     3 C      -5.100431     1.952560     2.483061 C          1 UNL1 0.000
     4 C      -3.866457     1.837733     1.821193 C          1 UNL1 0.000
     5 C      -3.312596     3.016072     1.286227 C          1 UNL1 0.000
     6 C      -3.981323     4.242882     1.367091 C          1 UNL1 0.000
     7 N      -3.174039     0.573500     1.707390 N          1 UNL1 0.000
     8 C      -3.852408    -0.701053     1.620064 C          1 UNL1 0.000
     9 C      -5.130647    -0.824936     1.049204 C          1 UNL1 0.000
    10 C      -5.795909    -2.057492     1.004201 C          1 UNL1 0.000
    11 C      -5.192926    -3.209288     1.514018 C          1 UNL1 0.000
    12 C      -3.900589    -3.116124     2.033796 C          1 UNL1 0.000
    13 C      -3.242989    -1.881813     2.085165 C          1 UNL1 0.000
    14 C      -5.968112     5.631671     2.051271 C          1 UNL1 0.000
    15 C      -5.891693    -4.535171     1.471364 C          1 UNL1 0.000
    16 C      -1.736040     0.586248     1.704642 C          1 UNL1 0.000
    17 C      -1.030431     0.746812     2.904380 C          1 UNL1 0.000
    18 C       0.360202     0.714795     2.890157 C          1 UNL1 0.000
    19 C       1.061286     0.611304     1.690585 C          1 UNL1 0.000
    20 C       0.373327     0.475371     0.476684 C          1 UNL1 0.000
    21 C      -1.029445     0.436285     0.499277 C          1 UNL1 0.000
    22 O       1.051337     0.840422     4.064665 O          1 UNL1 0.000
    23 C       1.332704    -0.455736     4.596961 C          1 UNL1 0.000
    24 H      -6.739459     3.220603     3.062667 H          1 UNL1 0.000
    25 H      -5.550889     1.086934     2.961970 H          1 UNL1 0.000
    26 H      -2.355024     2.994071     0.772731 H          1 UNL1 0.000
    27 H      -3.522174     5.123631     0.924053 H          1 UNL1 0.000
    28 H      -5.626504     0.039970     0.615837 H          1 UNL1 0.000
    29 H      -6.790330    -2.104441     0.565937 H          1 UNL1 0.000
    30 H      -3.395297    -4.001821     2.412164 H          1 UNL1 0.000
    31 H      -2.246579    -1.858896     2.517864 H          1 UNL1 0.000
    32 H      -5.326686     6.472361     1.766283 H          1 UNL1 0.000
    33 H      -6.332774     5.824728     3.065227 H          1 UNL1 0.000
    34 H      -6.818514     5.601597     1.362633 H          1 UNL1 0.000
    35 H      -5.454825    -5.166607     0.691705 H          1 UNL1 0.000
    36 H      -6.960217    -4.416772     1.263789 H          1 UNL1 0.000
    37 H      -5.801131    -5.043815     2.437230 H          1 UNL1 0.000
    38 H      -1.566074     0.867896     3.840618 H          1 UNL1 0.000
    39 H       2.148532     0.641882     1.702309 H          1 UNL1 0.000
    40 H      -1.584846     0.320162    -0.429769 H          1 UNL1 0.000
    41 H       1.968837    -0.327158     5.477648 H          1 UNL1 0.000
    42 H       1.875624    -1.079834     3.877589 H          1 UNL1 0.000
    43 H       0.410251    -0.955839     4.912269 H          1 UNL1 0.000
    44 C       1.108341     0.398338    -0.785532 C          1 UNL1 0.000
    45 C       1.329096     1.553903    -1.553290 C          1 UNL1 0.000
    46 C       2.056042     1.492500    -2.743940 C          1 UNL1 0.000
    47 C       2.577448     0.272655    -3.168933 C          1 UNL1 0.000
    48 C       2.338810    -0.889466    -2.440603 C          1 UNL1 0.000
    49 C       1.616418    -0.825108    -1.247823 C          1 UNL1 0.000
    50 O       3.278040     0.163730    -4.338447 O          1 UNL1 0.000
    51 C       4.548976     0.804926    -4.229056 C          1 UNL1 0.000
    52 H       0.932550     2.511659    -1.221000 H          1 UNL1 0.000
    53 H       2.201939     2.391614    -3.334846 H          1 UNL1 0.000
    54 H       2.722566    -1.841509    -2.795874 H          1 UNL1 0.000
    55 H       1.447558    -1.736003    -0.677666 H          1 UNL1 0.000
    56 H       5.133483     0.541262    -5.115616 H          1 UNL1 0.000
    57 H       5.097767     0.454989    -3.346969 H          1 UNL1 0.000
    58 H       4.442748     1.894347    -4.206823 H          1 UNL1 0.000
@<TRIPOS>BOND
     1      1      2   2
     2      2      3   1
     3      3      4   2
     4      4      5   1
     5      5      6   2
     6      6      1   1
     7      4      7   1
     8      7      8   1
     9      8      9   2
    10      9     10   1
    11     10     11   2
    12     11     12   1
    13     12     13   2
    14     13      8   1
    15      1     14   1
    16     11     15   1
    17     16     17   2
    18     17     18   1
    19     18     19   2
    20     19     20   1
    21     20     21   2
    22     21     16   1
    23     22     23   1
    24     18     22   1
    25      7     16   1
    26      2     24   1
    27      3     25   1
    28      5     26   1
    29      6     27   1
    30      9     28   1
    31     10     29   1
    32     12     30   1
    33     13     31   1
    34     14     32   1
    35     14     33   1
    36     14     34   1
    37     15     35   1
    38     15     36   1
    39     15     37   1
    40     17     38   1
    41     19     39   1
    42     21     40   1
    43     23     41   1
    44     23     42   1
    45     23     43   1
    46     44     45   2
    47     45     46   1
    48     46     47   2
    49     47     48   1
    50     48     49   2
    51     49     44   1
    52     50     51   1
    53     47     50   1
    54     45     52   1
    55     46     53   1
    56     48     54   1
    57     49     55   1
    58     51     56   1
    59     51     57   1
    60     51     58   1
    61     20     44   1
