# Produced with molli package
@<TRIPOS>MOLECULE
C_4_R
55 58 0 0 0
SMALL
USER_CHARGES

@<TRIPOS>ATOM
     1 C      -5.069976     4.296058     1.594110 C          1 UNL1 0.000
     2 C      -5.721175     3.153852     1.123294 C          1 UNL1 0.000
     3 C      -5.087389     1.902423     1.158389 C          1 UNL1 0.000
     4 C      -3.804141     1.742457     1.707297 C          1 UNL1 0.000
     5 C      -3.157058     2.913314     2.152810 C          1 UNL1 0.000
     6 C      -3.777622     4.166812     2.101931 C          1 UNL1 0.000
     7 N      -3.146281     0.452728     1.790185 N          1 UNL1 0.000
     8 C      -3.842730    -0.815791     1.854554 C          1 UNL1 0.000
     9 C      -5.125059    -0.941555     2.414514 C          1 UNL1 0.000
    10 C      -5.803573    -2.168931     2.427130 C          1 UNL1 0.000
    11 C      -5.205319    -3.319565     1.907793 C          1 UNL1 0.000
    12 C      -3.906492    -3.229736     1.408316 C          1 UNL1 0.000
    13 C      -3.239910    -1.998657     1.381338 C          1 UNL1 0.000
    14 C      -5.752267     5.631169     1.607852 C          1 UNL1 0.000
    15 C      -5.935844    -4.628944     1.921708 C          1 UNL1 0.000
    16 C      -1.706683     0.433976     1.784038 C          1 UNL1 0.000
    17 C      -0.994171     0.349503     2.988045 C          1 UNL1 0.000
    18 C       0.396070     0.380228     2.963351 C          1 UNL1 0.000
    19 C       1.089392     0.487624     1.758659 C          1 UNL1 0.000
    20 C       0.395180     0.539930     0.541865 C          1 UNL1 0.000
    21 C      -1.007230     0.526820     0.568007 C          1 UNL1 0.000
    22 O       1.106805     0.396040     4.131763 O          1 UNL1 0.000
    23 C       1.356361    -0.936943     4.576645 C          1 UNL1 0.000
    24 H      -6.728888     3.223854     0.719608 H          1 UNL1 0.000
    25 H      -5.618712     1.054708     0.734241 H          1 UNL1 0.000
    26 H      -2.155344     2.871866     2.571771 H          1 UNL1 0.000
    27 H      -3.241613     5.037716     2.472747 H          1 UNL1 0.000
    28 H      -5.618052    -0.084553     2.865681 H          1 UNL1 0.000
    29 H      -6.805161    -2.216485     2.849063 H          1 UNL1 0.000
    30 H      -3.399067    -4.111596     1.023602 H          1 UNL1 0.000
    31 H      -2.238018    -1.984206     0.960112 H          1 UNL1 0.000
    32 H      -5.063023     6.418985     1.285811 H          1 UNL1 0.000
    33 H      -6.104886     5.858984     2.618988 H          1 UNL1 0.000
    34 H      -6.610559     5.648081     0.928661 H          1 UNL1 0.000
    35 H      -5.413463    -5.383971     1.324226 H          1 UNL1 0.000
    36 H      -6.937149    -4.510121     1.494665 H          1 UNL1 0.000
    37 H      -6.022512    -5.002742     2.946403 H          1 UNL1 0.000
    38 H      -1.526762     0.296447     3.932831 H          1 UNL1 0.000
    39 H       2.176326     0.513911     1.771760 H          1 UNL1 0.000
    40 H      -1.568795     0.572540    -0.363481 H          1 UNL1 0.000
    41 H       2.158515    -0.894518     5.319726 H          1 UNL1 0.000
    42 H       1.687750    -1.590740     3.761514 H          1 UNL1 0.000
    43 H       0.463853    -1.349563     5.057477 H          1 UNL1 0.000
    44 C       1.120072     0.592530    -0.724822 C          1 UNL1 0.000
    45 N       1.216575    -0.587763    -1.390732 N          1 UNL1 0.000
    46 C       1.913485    -0.597356    -2.553166 C          1 UNL1 0.000
    47 C       2.507185     0.535528    -3.081372 C          1 UNL1 0.000
    48 C       2.396380     1.748395    -2.401519 C          1 UNL1 0.000
    49 C       1.693829     1.773048    -1.197162 C          1 UNL1 0.000
    50 N       3.236911     0.447230    -4.330857 N          1 UNL1 0.000
    51 O       3.742878    -0.646947    -4.621175 O          1 UNL1 0.000
    52 O       3.310756     1.469965    -5.022546 O          1 UNL1 0.000
    53 H       1.967060    -1.566817    -3.042596 H          1 UNL1 0.000
    54 H       2.849518     2.658857    -2.785049 H          1 UNL1 0.000
    55 H       1.594897     2.697710    -0.635540 H          1 UNL1 0.000
@<TRIPOS>BOND
     1      1      2   2
     2      2      3   1
     3      3      4   2
     4      4      5   1
     5      5      6   2
     6      6      1   1
     7      4      7   1
     8      7      8   1
     9      8      9   2
    10      9     10   1
    11     10     11   2
    12     11     12   1
    13     12     13   2
    14     13      8   1
    15      1     14   1
    16     11     15   1
    17     16     17   2
    18     17     18   1
    19     18     19   2
    20     19     20   1
    21     20     21   2
    22     21     16   1
    23     22     23   1
    24     18     22   1
    25      7     16   1
    26      2     24   1
    27      3     25   1
    28      5     26   1
    29      6     27   1
    30      9     28   1
    31     10     29   1
    32     12     30   1
    33     13     31   1
    34     14     32   1
    35     14     33   1
    36     14     34   1
    37     15     35   1
    38     15     36   1
    39     15     37   1
    40     17     38   1
    41     19     39   1
    42     21     40   1
    43     23     41   1
    44     23     42   1
    45     23     43   1
    46     44     45   2
    47     45     46   1
    48     46     47   2
    49     47     48   1
    50     48     49   2
    51     49     44   1
    52     50     51   2
    53     50     52   1
    54     47     50   1
    55     46     53   1
    56     48     54   1
    57     49     55   1
    58     20     44   1
