# Produced with molli package
@<TRIPOS>MOLECULE
C_4_O
53 56 0 0 0
SMALL
USER_CHARGES

@<TRIPOS>ATOM
     1 C      -5.242776     4.335727     1.585476 C          1 UNL1 0.000
     2 C      -5.841046     3.189785     1.056925 C          1 UNL1 0.000
     3 C      -5.169551     1.959013     1.079301 C          1 UNL1 0.000
     4 C      -3.896871     1.826115     1.660717 C          1 UNL1 0.000
     5 C      -3.299083     2.999943     2.158651 C          1 UNL1 0.000
     6 C      -3.961626     4.232541     2.129048 C          1 UNL1 0.000
     7 N      -3.213212     0.551739     1.726990 N          1 UNL1 0.000
     8 C      -3.896213    -0.720864     1.815794 C          1 UNL1 0.000
     9 C      -5.148522    -0.852315     2.439341 C          1 UNL1 0.000
    10 C      -5.806710    -2.087759     2.505458 C          1 UNL1 0.000
    11 C      -5.220023    -3.236776     1.968732 C          1 UNL1 0.000
    12 C      -3.957833    -3.133964     1.383248 C          1 UNL1 0.000
    13 C      -3.308408    -1.896058     1.309254 C          1 UNL1 0.000
    14 C      -5.963568     5.650257     1.610412 C          1 UNL1 0.000
    15 C      -5.928292    -4.555885     2.047854 C          1 UNL1 0.000
    16 C      -1.774960     0.548907     1.750874 C          1 UNL1 0.000
    17 C      -1.088512     0.480077     2.970662 C          1 UNL1 0.000
    18 C       0.301115     0.502355     2.977795 C          1 UNL1 0.000
    19 C       1.021772     0.591798     1.786658 C          1 UNL1 0.000
    20 C       0.355797     0.626312     0.552351 C          1 UNL1 0.000
    21 C      -1.048097     0.619785     0.550059 C          1 UNL1 0.000
    22 O       0.963511     0.521728     4.173481 O          1 UNL1 0.000
    23 C       1.465368    -0.774562     4.499417 C          1 UNL1 0.000
    24 H      -6.835626     3.240178     0.619647 H          1 UNL1 0.000
    25 H      -5.658299     1.102134     0.622449 H          1 UNL1 0.000
    26 H      -2.309089     2.974544     2.605501 H          1 UNL1 0.000
    27 H      -3.467672     5.108333     2.544084 H          1 UNL1 0.000
    28 H      -5.626355     0.006744     2.903126 H          1 UNL1 0.000
    29 H      -6.780912    -2.144044     2.985967 H          1 UNL1 0.000
    30 H      -3.464592    -4.011672     0.971778 H          1 UNL1 0.000
    31 H      -2.334303    -1.867235     0.827402 H          1 UNL1 0.000
    32 H      -5.316275     6.448516     1.232525 H          1 UNL1 0.000
    33 H      -6.266171     5.890581     2.634879 H          1 UNL1 0.000
    34 H      -6.861112     5.627777     0.984082 H          1 UNL1 0.000
    35 H      -5.391794    -5.332831     1.492791 H          1 UNL1 0.000
    36 H      -6.930948    -4.474212     1.615715 H          1 UNL1 0.000
    37 H      -6.009650    -4.878322     3.090523 H          1 UNL1 0.000
    38 H      -1.640918     0.433671     3.904366 H          1 UNL1 0.000
    39 H       2.108195     0.612073     1.822272 H          1 UNL1 0.000
    40 H      -1.585981     0.649062    -0.396099 H          1 UNL1 0.000
    41 H       2.402031    -0.642171     5.049411 H          1 UNL1 0.000
    42 H       1.672494    -1.399868     3.623009 H          1 UNL1 0.000
    43 H       0.750164    -1.283194     5.153024 H          1 UNL1 0.000
    44 C       1.107463     0.637912    -0.703554 C          1 UNL1 0.000
    45 N       0.981879    -0.476363    -1.466316 N          1 UNL1 0.000
    46 C       1.694727    -0.527745    -2.612445 C          1 UNL1 0.000
    47 C       2.526426     0.489116    -3.048630 C          1 UNL1 0.000
    48 C       2.635216     1.630020    -2.263285 C          1 UNL1 0.000
    49 C       1.920273     1.707626    -1.070579 C          1 UNL1 0.000
    50 H       1.577422    -1.441419    -3.187989 H          1 UNL1 0.000
    51 H       3.075490     0.393694    -3.978630 H          1 UNL1 0.000
    52 H       3.272866     2.452523    -2.573834 H          1 UNL1 0.000
    53 H       1.993099     2.589483    -0.442531 H          1 UNL1 0.000
@<TRIPOS>BOND
     1      1      2   2
     2      2      3   1
     3      3      4   2
     4      4      5   1
     5      5      6   2
     6      6      1   1
     7      4      7   1
     8      7      8   1
     9      8      9   2
    10      9     10   1
    11     10     11   2
    12     11     12   1
    13     12     13   2
    14     13      8   1
    15      1     14   1
    16     11     15   1
    17     16     17   2
    18     17     18   1
    19     18     19   2
    20     19     20   1
    21     20     21   2
    22     21     16   1
    23     22     23   1
    24     18     22   1
    25      7     16   1
    26      2     24   1
    27      3     25   1
    28      5     26   1
    29      6     27   1
    30      9     28   1
    31     10     29   1
    32     12     30   1
    33     13     31   1
    34     14     32   1
    35     14     33   1
    36     14     34   1
    37     15     35   1
    38     15     36   1
    39     15     37   1
    40     17     38   1
    41     19     39   1
    42     21     40   1
    43     23     41   1
    44     23     42   1
    45     23     43   1
    46     44     45   2
    47     45     46   1
    48     46     47   2
    49     47     48   1
    50     48     49   2
    51     49     44   1
    52     46     50   1
    53     47     51   1
    54     48     52   1
    55     49     53   1
    56     20     44   1
