# Produced with molli package
@<TRIPOS>MOLECULE
C_5_N
53 57 0 0 0
SMALL
USER_CHARGES

@<TRIPOS>ATOM
     1 C      -7.470688     4.290392     3.225792 C          1 UNL1 0.000
     2 C      -8.051806     3.155758     3.798934 C          1 UNL1 0.000
     3 C      -7.391960     1.920012     3.764028 C          1 UNL1 0.000
     4 C      -6.140436     1.776961     3.142700 C          1 UNL1 0.000
     5 C      -5.555719     2.939049     2.602802 C          1 UNL1 0.000
     6 C      -6.207658     4.176383     2.644074 C          1 UNL1 0.000
     7 N      -5.454291     0.504458     3.083758 N          1 UNL1 0.000
     8 C      -6.137787    -0.767436     3.031666 C          1 UNL1 0.000
     9 C      -7.393747    -0.910892     2.418238 C          1 UNL1 0.000
    10 C      -8.063856    -2.141308     2.403808 C          1 UNL1 0.000
    11 C      -7.481939    -3.273664     2.978436 C          1 UNL1 0.000
    12 C      -6.219545    -3.156819     3.563720 C          1 UNL1 0.000
    13 C      -5.556503    -1.924566     3.582962 C          1 UNL1 0.000
    14 C      -8.174296     5.613364     3.279233 C          1 UNL1 0.000
    15 C      -8.202979    -4.588147     3.005758 C          1 UNL1 0.000
    16 C      -4.016800     0.512384     3.085946 C          1 UNL1 0.000
    17 C      -3.314986     0.771336     4.269062 C          1 UNL1 0.000
    18 C      -1.920367     0.820287     4.263823 C          1 UNL1 0.000
    19 C      -1.204956     0.654914     3.067731 C          1 UNL1 0.000
    20 C      -1.906227     0.404223     1.865373 C          1 UNL1 0.000
    21 C      -3.306670     0.306956     1.893288 C          1 UNL1 0.000
    22 C       0.194051     0.758928     3.039589 C          1 UNL1 0.000
    23 C       0.891482     0.658472     1.833606 C          1 UNL1 0.000
    24 C       0.201759     0.433591     0.640450 C          1 UNL1 0.000
    25 C      -1.191183     0.290371     0.661124 C          1 UNL1 0.000
    26 H      -9.023587     3.223760     4.282876 H          1 UNL1 0.000
    27 H      -7.866329     1.070869     4.249344 H          1 UNL1 0.000
    28 H      -4.581356     2.897808     2.122693 H          1 UNL1 0.000
    29 H      -5.717170     5.045143     2.210896 H          1 UNL1 0.000
    30 H      -7.867479    -0.062990     1.929792 H          1 UNL1 0.000
    31 H      -9.043894    -2.202890     1.936182 H          1 UNL1 0.000
    32 H      -5.741757    -4.022192     4.017714 H          1 UNL1 0.000
    33 H      -4.581954    -1.880109     4.062177 H          1 UNL1 0.000
    34 H      -7.716219     6.335835     2.595137 H          1 UNL1 0.000
    35 H      -8.129505     6.022676     4.293057 H          1 UNL1 0.000
    36 H      -9.221945     5.501059     2.981490 H          1 UNL1 0.000
    37 H      -7.544024    -5.392499     2.662738 H          1 UNL1 0.000
    38 H      -9.080327    -4.577771     2.350954 H          1 UNL1 0.000
    39 H      -8.538070    -4.809505     4.024261 H          1 UNL1 0.000
    40 H      -3.859672     0.930216     5.196438 H          1 UNL1 0.000
    41 H      -1.398859     1.014573     5.197886 H          1 UNL1 0.000
    42 H      -3.864096     0.119631     0.978288 H          1 UNL1 0.000
    43 H       0.751833     0.941034     3.955234 H          1 UNL1 0.000
    44 H       1.974131     0.762725     1.833648 H          1 UNL1 0.000
    45 H      -1.726973     0.127332    -0.271949 H          1 UNL1 0.000
    46 C       0.925845     0.401710    -0.619224 C          1 UNL1 0.000
    47 C       0.969591    -0.731821    -1.405697 C          1 UNL1 0.000
    48 S       1.886457    -0.496968    -2.833278 S          1 UNL1 0.000
    49 C       2.230518     1.124783    -2.412781 C          1 UNL1 0.000
    50 C       1.664926     1.476432    -1.207000 C          1 UNL1 0.000
    51 H       0.514464    -1.694366    -1.214391 H          1 UNL1 0.000
    52 H       2.829011     1.742332    -3.068387 H          1 UNL1 0.000
    53 H       1.764092     2.463607    -0.771432 H          1 UNL1 0.000
@<TRIPOS>BOND
     1      1      2   2
     2      2      3   1
     3      3      4   2
     4      4      5   1
     5      5      6   2
     6      6      1   1
     7      4      7   1
     8      7      8   1
     9      8      9   2
    10      9     10   1
    11     10     11   2
    12     11     12   1
    13     12     13   2
    14     13      8   1
    15      1     14   1
    16     11     15   1
    17     16     17   2
    18     17     18   1
    19     18     19   2
    20     19     20   1
    21     20     21   2
    22     21     16   1
    23     19     22   1
    24     22     23   2
    25     23     24   1
    26     24     25   2
    27     25     20   1
    28      7     16   1
    29      2     26   1
    30      3     27   1
    31      5     28   1
    32      6     29   1
    33      9     30   1
    34     10     31   1
    35     12     32   1
    36     13     33   1
    37     14     34   1
    38     14     35   1
    39     14     36   1
    40     15     37   1
    41     15     38   1
    42     15     39   1
    43     17     40   1
    44     18     41   1
    45     21     42   1
    46     22     43   1
    47     23     44   1
    48     25     45   1
    49     46     47   2
    50     47     48   1
    51     48     49   1
    52     49     50   2
    53     50     46   1
    54     47     51   1
    55     49     52   1
    56     50     53   1
    57     24     46   1
