# Produced with molli package
@<TRIPOS>MOLECULE
C_5_L
60 65 0 0 0
SMALL
USER_CHARGES

@<TRIPOS>ATOM
     1 C      -7.424977     4.299724     2.911921 C          1 UNL1 0.000
     2 C      -8.025966     3.171098     2.349684 C          1 UNL1 0.000
     3 C      -7.351663     1.943140     2.324467 C          1 UNL1 0.000
     4 C      -6.074331     1.796269     2.891541 C          1 UNL1 0.000
     5 C      -5.470973     2.952531     3.420452 C          1 UNL1 0.000
     6 C      -6.137625     4.182747     3.439394 C          1 UNL1 0.000
     7 N      -5.398735     0.518498     2.927036 N          1 UNL1 0.000
     8 C      -6.092031    -0.744536     3.070992 C          1 UNL1 0.000
     9 C      -7.334219    -0.845762     3.720101 C          1 UNL1 0.000
    10 C      -8.003572    -2.071647     3.832114 C          1 UNL1 0.000
    11 C      -7.440135    -3.240188     3.313678 C          1 UNL1 0.000
    12 C      -6.183165    -3.168471     2.711767 C          1 UNL1 0.000
    13 C      -5.523158    -1.939783     2.590295 C          1 UNL1 0.000
    14 C      -8.157417     5.605039     3.000861 C          1 UNL1 0.000
    15 C      -8.153099    -4.552061     3.450979 C          1 UNL1 0.000
    16 C      -3.960906     0.503557     2.916049 C          1 UNL1 0.000
    17 C      -3.251469     0.317169     4.109075 C          1 UNL1 0.000
    18 C      -1.857343     0.299790     4.101893 C          1 UNL1 0.000
    19 C      -1.147560     0.422833     2.898689 C          1 UNL1 0.000
    20 C      -1.853107     0.586247     1.682796 C          1 UNL1 0.000
    21 C      -3.256505     0.652655     1.711146 C          1 UNL1 0.000
    22 C       0.251309     0.365842     2.878136 C          1 UNL1 0.000
    23 C       0.948329     0.422402     1.670066 C          1 UNL1 0.000
    24 C       0.267016     0.546671     0.452017 C          1 UNL1 0.000
    25 C      -1.133000     0.650396     0.475148 C          1 UNL1 0.000
    26 H      -9.026142     3.232911     1.926956 H          1 UNL1 0.000
    27 H      -7.842441     1.096649     1.850365 H          1 UNL1 0.000
    28 H      -4.477345     2.909683     3.858381 H          1 UNL1 0.000
    29 H      -5.643699     5.044964     3.881912 H          1 UNL1 0.000
    30 H      -7.796156     0.029616     4.169073 H          1 UNL1 0.000
    31 H      -8.968637    -2.104084     4.332919 H          1 UNL1 0.000
    32 H      -5.704033    -4.064654     2.324057 H          1 UNL1 0.000
    33 H      -4.554699    -1.932978     2.096520 H          1 UNL1 0.000
    34 H      -7.500739     6.434363     2.718258 H          1 UNL1 0.000
    35 H      -8.512214     5.763739     4.024447 H          1 UNL1 0.000
    36 H      -9.021418     5.625041     2.328901 H          1 UNL1 0.000
    37 H      -7.737923    -5.303057     2.770368 H          1 UNL1 0.000
    38 H      -9.213679    -4.439102     3.202808 H          1 UNL1 0.000
    39 H      -8.061656    -4.924770     4.475716 H          1 UNL1 0.000
    40 H      -3.790757     0.200108     5.045531 H          1 UNL1 0.000
    41 H      -1.329356     0.169013     5.043924 H          1 UNL1 0.000
    42 H      -3.818878     0.782623     0.788693 H          1 UNL1 0.000
    43 H       0.813644     0.255800     3.802874 H          1 UNL1 0.000
    44 H       2.034581     0.355340     1.680586 H          1 UNL1 0.000
    45 H      -1.670953     0.745389    -0.467426 H          1 UNL1 0.000
    46 C       1.009841     0.523060    -0.813275 C          1 UNL1 0.000
    47 C       1.164656     1.682350    -1.584718 C          1 UNL1 0.000
    48 C       1.900639     1.682096    -2.777534 C          1 UNL1 0.000
    49 C       2.479208     0.474247    -3.181976 C          1 UNL1 0.000
    50 C       2.342311    -0.705078    -2.452127 C          1 UNL1 0.000
    51 C       1.598982    -0.677658    -1.256327 C          1 UNL1 0.000
    52 N       3.250046     0.179002    -4.284240 N          1 UNL1 0.000
    53 C       3.599052    -1.145965    -4.277524 C          1 UNL1 0.000
    54 C       3.048023    -1.720130    -3.154917 C          1 UNL1 0.000
    55 H       0.717311     2.616237    -1.247821 H          1 UNL1 0.000
    56 H       2.018791     2.591763    -3.356904 H          1 UNL1 0.000
    57 H       1.483995    -1.589744    -0.676105 H          1 UNL1 0.000
    58 H       3.517950     0.848609    -4.991931 H          1 UNL1 0.000
    59 H       4.207188    -1.564225    -5.068196 H          1 UNL1 0.000
    60 H       3.143161    -2.758256    -2.864749 H          1 UNL1 0.000
@<TRIPOS>BOND
     1      1      2   2
     2      2      3   1
     3      3      4   2
     4      4      5   1
     5      5      6   2
     6      6      1   1
     7      4      7   1
     8      7      8   1
     9      8      9   2
    10      9     10   1
    11     10     11   2
    12     11     12   1
    13     12     13   2
    14     13      8   1
    15      1     14   1
    16     11     15   1
    17     16     17   2
    18     17     18   1
    19     18     19   2
    20     19     20   1
    21     20     21   2
    22     21     16   1
    23     19     22   1
    24     22     23   2
    25     23     24   1
    26     24     25   2
    27     25     20   1
    28      7     16   1
    29      2     26   1
    30      3     27   1
    31      5     28   1
    32      6     29   1
    33      9     30   1
    34     10     31   1
    35     12     32   1
    36     13     33   1
    37     14     34   1
    38     14     35   1
    39     14     36   1
    40     15     37   1
    41     15     38   1
    42     15     39   1
    43     17     40   1
    44     18     41   1
    45     21     42   1
    46     22     43   1
    47     23     44   1
    48     25     45   1
    49     46     47   2
    50     47     48   1
    51     48     49   2
    52     49     50   1
    53     50     51   2
    54     51     46   1
    55     49     52   1
    56     52     53   1
    57     53     54   2
    58     54     50   1
    59     47     55   1
    60     48     56   1
    61     51     57   1
    62     52     58   1
    63     53     59   1
    64     54     60   1
    65     24     46   1
