# Produced with molli package
@<TRIPOS>MOLECULE
C_5_S
61 65 0 0 0
SMALL
USER_CHARGES

@<TRIPOS>ATOM
     1 C      -7.388242     4.355760     3.139819 C          1 UNL1 0.000
     2 C      -8.006887     3.203676     3.629662 C          1 UNL1 0.000
     3 C      -7.347028     1.967420     3.592262 C          1 UNL1 0.000
     4 C      -6.063936     1.833579     3.034850 C          1 UNL1 0.000
     5 C      -5.437517     3.018270     2.598923 C          1 UNL1 0.000
     6 C      -6.084587     4.258936     2.653784 C          1 UNL1 0.000
     7 N      -5.389614     0.553526     2.934262 N          1 UNL1 0.000
     8 C      -6.079675    -0.719219     2.901047 C          1 UNL1 0.000
     9 C      -7.361753    -0.859448     2.342708 C          1 UNL1 0.000
    10 C      -8.055431    -2.076582     2.392504 C          1 UNL1 0.000
    11 C      -7.470733    -3.203354     2.973523 C          1 UNL1 0.000
    12 C      -6.165485    -3.105595     3.457982 C          1 UNL1 0.000
    13 C      -5.482536    -1.884066     3.420049 C          1 UNL1 0.000
    14 C      -8.099422     5.674970     3.178543 C          1 UNL1 0.000
    15 C      -8.208894    -4.505266     3.063696 C          1 UNL1 0.000
    16 C      -3.950695     0.547436     2.934113 C          1 UNL1 0.000
    17 C      -3.247104     0.683553     4.136928 C          1 UNL1 0.000
    18 C      -1.852338     0.681883     4.138927 C          1 UNL1 0.000
    19 C      -1.135957     0.584770     2.936312 C          1 UNL1 0.000
    20 C      -1.835197     0.474534     1.712112 C          1 UNL1 0.000
    21 C      -3.240139     0.431404     1.728589 C          1 UNL1 0.000
    22 C       0.264866     0.609531     2.926900 C          1 UNL1 0.000
    23 C       0.970473     0.556721     1.722927 C          1 UNL1 0.000
    24 C       0.295396     0.479122     0.498401 C          1 UNL1 0.000
    25 C      -1.107805     0.427932     0.507582 C          1 UNL1 0.000
    26 H      -9.010454     3.255797     4.046185 H          1 UNL1 0.000
    27 H      -7.857762     1.109925     4.021837 H          1 UNL1 0.000
    28 H      -4.430805     2.997598     2.189904 H          1 UNL1 0.000
    29 H      -5.559117     5.143306     2.300556 H          1 UNL1 0.000
    30 H      -7.845553    -0.016567     1.855603 H          1 UNL1 0.000
    31 H      -9.059644    -2.128953     1.978011 H          1 UNL1 0.000
    32 H      -5.671316    -3.975189     3.885628 H          1 UNL1 0.000
    33 H      -4.478277    -1.858045     3.833926 H          1 UNL1 0.000
    34 H      -7.601298     6.413747     2.541488 H          1 UNL1 0.000
    35 H      -8.125066     6.061120     4.201848 H          1 UNL1 0.000
    36 H      -9.124464     5.566035     2.808624 H          1 UNL1 0.000
    37 H      -7.758214    -5.244081     2.394195 H          1 UNL1 0.000
    38 H      -9.262456    -4.388637     2.789373 H          1 UNL1 0.000
    39 H      -8.178146    -4.885244     4.090749 H          1 UNL1 0.000
    40 H      -3.791273     0.776260     5.073452 H          1 UNL1 0.000
    41 H      -1.329210     0.771975     5.088142 H          1 UNL1 0.000
    42 H      -3.798566     0.340450     0.799415 H          1 UNL1 0.000
    43 H       0.821758     0.684614     3.858233 H          1 UNL1 0.000
    44 H       2.057889     0.596208     1.744601 H          1 UNL1 0.000
    45 H      -1.640974     0.362458    -0.439887 H          1 UNL1 0.000
    46 C       1.048451     0.473287    -0.758831 C          1 UNL1 0.000
    47 C       1.162495     1.636748    -1.529977 C          1 UNL1 0.000
    48 C       1.918947     1.642304    -2.706861 C          1 UNL1 0.000
    49 C       2.575917     0.482836    -3.144574 C          1 UNL1 0.000
    50 C       2.463186    -0.682115    -2.379161 C          1 UNL1 0.000
    51 C       1.704959    -0.683799    -1.199663 C          1 UNL1 0.000
    52 C       3.375892     0.571848    -4.406227 C          1 UNL1 0.000
    53 C       3.976561    -0.656955    -5.040224 C          1 UNL1 0.000
    54 O       3.538906     1.672427    -4.936932 O          1 UNL1 0.000
    55 H       0.675201     2.556003    -1.209313 H          1 UNL1 0.000
    56 H       1.997430     2.566634    -3.277842 H          1 UNL1 0.000
    57 H       2.958964    -1.606418    -2.653083 H          1 UNL1 0.000
    58 H       1.633634    -1.600491    -0.615989 H          1 UNL1 0.000
    59 H       3.590645    -0.744719    -6.060324 H          1 UNL1 0.000
    60 H       3.745496    -1.586018    -4.523911 H          1 UNL1 0.000
    61 H       5.063949    -0.541973    -5.069794 H          1 UNL1 0.000
@<TRIPOS>BOND
     1      1      2   2
     2      2      3   1
     3      3      4   2
     4      4      5   1
     5      5      6   2
     6      6      1   1
     7      4      7   1
     8      7      8   1
     9      8      9   2
    10      9     10   1
    11     10     11   2
    12     11     12   1
    13     12     13   2
    14     13      8   1
    15      1     14   1
    16     11     15   1
    17     16     17   2
    18     17     18   1
    19     18     19   2
    20     19     20   1
    21     20     21   2
    22     21     16   1
    23     19     22   1
    24     22     23   2
    25     23     24   1
    26     24     25   2
    27     25     20   1
    28      7     16   1
    29      2     26   1
    30      3     27   1
    31      5     28   1
    32      6     29   1
    33      9     30   1
    34     10     31   1
    35     12     32   1
    36     13     33   1
    37     14     34   1
    38     14     35   1
    39     14     36   1
    40     15     37   1
    41     15     38   1
    42     15     39   1
    43     17     40   1
    44     18     41   1
    45     21     42   1
    46     22     43   1
    47     23     44   1
    48     25     45   1
    49     46     47   2
    50     47     48   1
    51     48     49   2
    52     49     50   1
    53     50     51   2
    54     51     46   1
    55     49     52   1
    56     52     53   1
    57     52     54   2
    58     47     55   1
    59     48     56   1
    60     50     57   1
    61     51     58   1
    62     53     59   1
    63     53     60   1
    64     53     61   1
    65     24     46   1
