# Produced with molli package
@<TRIPOS>MOLECULE
C_5_M
57 61 0 0 0
SMALL
USER_CHARGES

@<TRIPOS>ATOM
     1 C      -7.418094     4.332236     3.163840 C          1 UNL1 0.000
     2 C      -8.041101     3.170464     3.623532 C          1 UNL1 0.000
     3 C      -7.369823     1.938787     3.596267 C          1 UNL1 0.000
     4 C      -6.078286     1.813289     3.058327 C          1 UNL1 0.000
     5 C      -5.447434     3.011158     2.661756 C          1 UNL1 0.000
     6 C      -6.101471     4.248537     2.714928 C          1 UNL1 0.000
     7 N      -5.395752     0.537010     2.932392 N          1 UNL1 0.000
     8 C      -6.061492    -0.752205     2.887022 C          1 UNL1 0.000
     9 C      -7.382848    -0.908451     2.435687 C          1 UNL1 0.000
    10 C      -8.043123    -2.145166     2.496419 C          1 UNL1 0.000
    11 C      -7.382672    -3.281412     2.965417 C          1 UNL1 0.000
    12 C      -6.038269    -3.171534     3.318881 C          1 UNL1 0.000
    13 C      -5.392736    -1.929134     3.281801 C          1 UNL1 0.000
    14 C      -8.156596     5.636817     3.154321 C          1 UNL1 0.000
    15 C      -8.079806    -4.605056     3.063158 C          1 UNL1 0.000
    16 C      -3.955039     0.552609     2.915814 C          1 UNL1 0.000
    17 C      -3.242278     0.636669     4.118128 C          1 UNL1 0.000
    18 C      -1.848032     0.649401     4.107650 C          1 UNL1 0.000
    19 C      -1.141780     0.612762     2.895839 C          1 UNL1 0.000
    20 C      -1.849283     0.551280     1.672597 C          1 UNL1 0.000
    21 C      -3.254396     0.500852     1.699127 C          1 UNL1 0.000
    22 C       0.258380     0.643594     2.878921 C          1 UNL1 0.000
    23 C       0.956612     0.632080     1.670057 C          1 UNL1 0.000
    24 C       0.275126     0.592313     0.447106 C          1 UNL1 0.000
    25 C      -1.128501     0.549183     0.462105 C          1 UNL1 0.000
    26 H      -9.058746     3.210724     4.006144 H          1 UNL1 0.000
    27 H      -7.885490     1.079681     4.015332 H          1 UNL1 0.000
    28 H      -4.429268     3.006444     2.281982 H          1 UNL1 0.000
    29 H      -5.570811     5.138967     2.385740 H          1 UNL1 0.000
    30 H      -7.931295    -0.066778     2.022019 H          1 UNL1 0.000
    31 H      -9.081479    -2.205064     2.177861 H          1 UNL1 0.000
    32 H      -5.481602    -4.047606     3.644348 H          1 UNL1 0.000
    33 H      -4.352182    -1.903272     3.593496 H          1 UNL1 0.000
    34 H      -7.539471     6.444147     2.745605 H          1 UNL1 0.000
    35 H      -8.450788     5.916891     4.170218 H          1 UNL1 0.000
    36 H      -9.051405     5.555637     2.528101 H          1 UNL1 0.000
    37 H      -7.716414    -5.284105     2.286105 H          1 UNL1 0.000
    38 H      -9.163369    -4.495907     2.949617 H          1 UNL1 0.000
    39 H      -7.899227    -5.054994     4.045724 H          1 UNL1 0.000
    40 H      -3.778992     0.675079     5.062738 H          1 UNL1 0.000
    41 H      -1.317200     0.696553     5.055719 H          1 UNL1 0.000
    42 H      -3.820920     0.446781     0.771957 H          1 UNL1 0.000
    43 H       0.821039     0.682473     3.809011 H          1 UNL1 0.000
    44 H       2.044411     0.663860     1.687540 H          1 UNL1 0.000
    45 H      -1.667373     0.512688    -0.483666 H          1 UNL1 0.000
    46 C       1.027573     0.592126    -0.811046 C          1 UNL1 0.000
    47 C       1.160287     1.763330    -1.572510 C          1 UNL1 0.000
    48 C       1.925445     1.772336    -2.744182 C          1 UNL1 0.000
    49 C       2.565647     0.605838    -3.173037 C          1 UNL1 0.000
    50 C       2.431251    -0.569509    -2.429039 C          1 UNL1 0.000
    51 C       1.668614    -0.573873    -1.256996 C          1 UNL1 0.000
    52 C       3.363750     0.615702    -4.363726 C          1 UNL1 0.000
    53 N       4.014397     0.622346    -5.325427 N          1 UNL1 0.000
    54 H       0.680489     2.683908    -1.243740 H          1 UNL1 0.000
    55 H       2.023774     2.696786    -3.310486 H          1 UNL1 0.000
    56 H       2.922515    -1.486608    -2.748767 H          1 UNL1 0.000
    57 H       1.579820    -1.495199    -0.683379 H          1 UNL1 0.000
@<TRIPOS>BOND
     1      1      2   2
     2      2      3   1
     3      3      4   2
     4      4      5   1
     5      5      6   2
     6      6      1   1
     7      4      7   1
     8      7      8   1
     9      8      9   2
    10      9     10   1
    11     10     11   2
    12     11     12   1
    13     12     13   2
    14     13      8   1
    15      1     14   1
    16     11     15   1
    17     16     17   2
    18     17     18   1
    19     18     19   2
    20     19     20   1
    21     20     21   2
    22     21     16   1
    23     19     22   1
    24     22     23   2
    25     23     24   1
    26     24     25   2
    27     25     20   1
    28      7     16   1
    29      2     26   1
    30      3     27   1
    31      5     28   1
    32      6     29   1
    33      9     30   1
    34     10     31   1
    35     12     32   1
    36     13     33   1
    37     14     34   1
    38     14     35   1
    39     14     36   1
    40     15     37   1
    41     15     38   1
    42     15     39   1
    43     17     40   1
    44     18     41   1
    45     21     42   1
    46     22     43   1
    47     23     44   1
    48     25     45   1
    49     46     47   2
    50     47     48   1
    51     48     49   2
    52     49     50   1
    53     50     51   2
    54     51     46   1
    55     52     53   3
    56     49     52   1
    57     47     54   1
    58     48     55   1
    59     50     56   1
    60     51     57   1
    61     24     46   1
