# Produced with molli package
@<TRIPOS>MOLECULE
C_5_Q
54 58 0 0 0
SMALL
USER_CHARGES

@<TRIPOS>ATOM
     1 C      -7.482998     4.202788     2.913382 C          1 UNL1 0.000
     2 C      -8.075493     3.053921     2.384757 C          1 UNL1 0.000
     3 C      -7.396271     1.828085     2.404364 C          1 UNL1 0.000
     4 C      -6.116349     1.706823     2.971398 C          1 UNL1 0.000
     5 C      -5.517038     2.886336     3.453148 C          1 UNL1 0.000
     6 C      -6.187737     4.114223     3.425947 C          1 UNL1 0.000
     7 N      -5.425732     0.437853     3.041673 N          1 UNL1 0.000
     8 C      -6.101281    -0.837686     3.153271 C          1 UNL1 0.000
     9 C      -7.350667    -0.969988     3.781698 C          1 UNL1 0.000
    10 C      -8.004674    -2.207405     3.855184 C          1 UNL1 0.000
    11 C      -7.417352    -3.356557     3.319372 C          1 UNL1 0.000
    12 C      -6.151806    -3.254889     2.740876 C          1 UNL1 0.000
    13 C      -5.507393    -2.015079     2.658008 C          1 UNL1 0.000
    14 C      -8.197410     5.520887     2.905184 C          1 UNL1 0.000
    15 C      -8.117551    -4.679477     3.408396 C          1 UNL1 0.000
    16 C      -3.987815     0.441480     3.047140 C          1 UNL1 0.000
    17 C      -3.288815     0.259098     4.246819 C          1 UNL1 0.000
    18 C      -1.894207     0.252102     4.252786 C          1 UNL1 0.000
    19 C      -1.173806     0.383142     3.056398 C          1 UNL1 0.000
    20 C      -1.870231     0.551656     1.836260 C          1 UNL1 0.000
    21 C      -3.273179     0.605552     1.850630 C          1 UNL1 0.000
    22 C       0.225878     0.334701     3.044990 C          1 UNL1 0.000
    23 C       0.932064     0.403754     1.841837 C          1 UNL1 0.000
    24 C       0.258512     0.536784     0.619178 C          1 UNL1 0.000
    25 C      -1.142299     0.636849     0.636170 C          1 UNL1 0.000
    26 H      -9.072425     3.097892     1.952239 H          1 UNL1 0.000
    27 H      -7.883992     0.966145     1.956144 H          1 UNL1 0.000
    28 H      -4.518002     2.867529     3.880707 H          1 UNL1 0.000
    29 H      -5.689425     4.998033     3.818143 H          1 UNL1 0.000
    30 H      -7.830860    -0.110110     4.241506 H          1 UNL1 0.000
    31 H      -8.977607    -2.264311     4.338329 H          1 UNL1 0.000
    32 H      -5.654443    -4.135314     2.340307 H          1 UNL1 0.000
    33 H      -4.531719    -1.984851     2.179918 H          1 UNL1 0.000
    34 H      -7.744928     6.190773     2.167618 H          1 UNL1 0.000
    35 H      -8.142766     5.987437     3.894734 H          1 UNL1 0.000
    36 H      -9.257203     5.400145     2.658248 H          1 UNL1 0.000
    37 H      -7.660259    -5.417449     2.740510 H          1 UNL1 0.000
    38 H      -9.166406    -4.577088     3.110880 H          1 UNL1 0.000
    39 H      -8.069385    -5.063484     4.431859 H          1 UNL1 0.000
    40 H      -3.836572     0.136895     5.177722 H          1 UNL1 0.000
    41 H      -1.374496     0.124991     5.200015 H          1 UNL1 0.000
    42 H      -3.827902     0.737378     0.923633 H          1 UNL1 0.000
    43 H       0.781258     0.228586     3.974783 H          1 UNL1 0.000
    44 H       2.019240     0.356393     1.865421 H          1 UNL1 0.000
    45 H      -1.672087     0.757666    -0.308794 H          1 UNL1 0.000
    46 C       0.996073     0.541061    -0.643707 C          1 UNL1 0.000
    47 N       0.994838     1.699910    -1.349261 N          1 UNL1 0.000
    48 C       1.705229     1.687275    -2.501653 C          1 UNL1 0.000
    49 C       2.381873     0.565177    -2.950394 C          1 UNL1 0.000
    50 N       2.381937    -0.600197    -2.267610 N          1 UNL1 0.000
    51 C       1.676815    -0.583952    -1.109126 C          1 UNL1 0.000
    52 H       1.719150     2.616374    -3.059871 H          1 UNL1 0.000
    53 H       2.945527     0.574571    -3.876236 H          1 UNL1 0.000
    54 H       1.667073    -1.518673    -0.557763 H          1 UNL1 0.000
@<TRIPOS>BOND
     1      1      2   2
     2      2      3   1
     3      3      4   2
     4      4      5   1
     5      5      6   2
     6      6      1   1
     7      4      7   1
     8      7      8   1
     9      8      9   2
    10      9     10   1
    11     10     11   2
    12     11     12   1
    13     12     13   2
    14     13      8   1
    15      1     14   1
    16     11     15   1
    17     16     17   2
    18     17     18   1
    19     18     19   2
    20     19     20   1
    21     20     21   2
    22     21     16   1
    23     19     22   1
    24     22     23   2
    25     23     24   1
    26     24     25   2
    27     25     20   1
    28      7     16   1
    29      2     26   1
    30      3     27   1
    31      5     28   1
    32      6     29   1
    33      9     30   1
    34     10     31   1
    35     12     32   1
    36     13     33   1
    37     14     34   1
    38     14     35   1
    39     14     36   1
    40     15     37   1
    41     15     38   1
    42     15     39   1
    43     17     40   1
    44     18     41   1
    45     21     42   1
    46     22     43   1
    47     23     44   1
    48     25     45   1
    49     46     47   2
    50     47     48   1
    51     48     49   2
    52     49     50   1
    53     50     51   2
    54     51     46   1
    55     48     52   1
    56     49     53   1
    57     51     54   1
    58     24     46   1
