# Produced with molli package
@<TRIPOS>MOLECULE
C_5_P
60 64 0 0 0
SMALL
USER_CHARGES

@<TRIPOS>ATOM
     1 C      -6.920672     4.088536     3.491251 C          1 UNL1 0.000
     2 C      -7.367167     3.264062     2.454721 C          1 UNL1 0.000
     3 C      -6.703254     2.070750     2.173105 C          1 UNL1 0.000
     4 C      -5.557682     1.690813     2.898542 C          1 UNL1 0.000
     5 C      -5.125841     2.507235     3.951742 C          1 UNL1 0.000
     6 C      -5.799314     3.700876     4.239007 C          1 UNL1 0.000
     7 N      -4.867717     0.484258     2.539170 N          1 UNL1 0.000
     8 C      -5.671065    -0.722544     2.596917 C          1 UNL1 0.000
     9 C      -6.435915    -1.006795     3.742687 C          1 UNL1 0.000
    10 C      -7.205894    -2.169676     3.824404 C          1 UNL1 0.000
    11 C      -7.228059    -3.078100     2.762472 C          1 UNL1 0.000
    12 C      -6.496967    -2.787828     1.604277 C          1 UNL1 0.000
    13 C      -5.728966    -1.621331     1.520438 C          1 UNL1 0.000
    14 C      -7.591910     5.406516     3.741900 C          1 UNL1 0.000
    15 C      -8.063211    -4.321674     2.839408 C          1 UNL1 0.000
    16 C      -3.464236     0.441723     2.107282 C          1 UNL1 0.000
    17 C      -2.803733    -0.806124     2.199153 C          1 UNL1 0.000
    18 C      -1.537405    -1.018993     1.665252 C          1 UNL1 0.000
    19 C      -0.816467     0.032426     1.099278 C          1 UNL1 0.000
    20 C      -1.346913     1.350282     1.186284 C          1 UNL1 0.000
    21 C      -2.703346     1.564558     1.596735 C          1 UNL1 0.000
    22 C      -0.538347     2.467827     0.851217 C          1 UNL1 0.000
    23 C      -1.027528     3.766294     0.808483 C          1 UNL1 0.000
    24 C      -2.364639     3.976164     1.059901 C          1 UNL1 0.000
    25 C      -3.176567     2.896697     1.422174 C          1 UNL1 0.000
    26 H      -8.224548     3.548555     1.849178 H          1 UNL1 0.000
    27 H      -7.053274     1.449530     1.351554 H          1 UNL1 0.000
    28 H      -4.252576     2.225698     4.533997 H          1 UNL1 0.000
    29 H      -5.432488     4.334836     5.043063 H          1 UNL1 0.000
    30 H      -6.421233    -0.326663     4.591131 H          1 UNL1 0.000
    31 H      -7.781452    -2.359788     4.727436 H          1 UNL1 0.000
    32 H      -6.519916    -3.469591     0.757111 H          1 UNL1 0.000
    33 H      -5.178796    -1.412894     0.606210 H          1 UNL1 0.000
    34 H      -7.102043     6.190342     3.155313 H          1 UNL1 0.000
    35 H      -7.547340     5.673808     4.802112 H          1 UNL1 0.000
    36 H      -8.649352     5.367312     3.458616 H          1 UNL1 0.000
    37 H      -7.514200    -5.178152     2.434534 H          1 UNL1 0.000
    38 H      -8.989468    -4.187464     2.272559 H          1 UNL1 0.000
    39 H      -8.322277    -4.562057     3.876170 H          1 UNL1 0.000
    40 H      -3.295150    -1.665145     2.650456 H          1 UNL1 0.000
    41 H      -1.141251    -2.032377     1.655209 H          1 UNL1 0.000
    42 H       0.519980     2.332538     0.628425 H          1 UNL1 0.000
    43 H      -0.372331     4.593657     0.554522 H          1 UNL1 0.000
    44 H      -2.788677     4.973831     0.990164 H          1 UNL1 0.000
    45 H      -4.219836     3.145009     1.562521 H          1 UNL1 0.000
    46 C       0.403191    -0.289810     0.314681 C          1 UNL1 0.000
    47 C       0.499028     0.123491    -1.029172 C          1 UNL1 0.000
    48 C       1.625932    -0.155868    -1.807891 C          1 UNL1 0.000
    49 C       2.678897    -0.884645    -1.265448 C          1 UNL1 0.000
    50 C       2.579454    -1.348872     0.048156 C          1 UNL1 0.000
    51 C       1.459111    -1.048353     0.835204 C          1 UNL1 0.000
    52 O       3.830783    -1.221085    -1.921951 O          1 UNL1 0.000
    53 C       4.127554    -0.465026    -3.091714 C          1 UNL1 0.000
    54 H      -0.319906     0.680010    -1.484344 H          1 UNL1 0.000
    55 H       1.638001     0.199462    -2.832463 H          1 UNL1 0.000
    56 H       3.387626    -1.942400     0.468517 H          1 UNL1 0.000
    57 H       1.423125    -1.412634     1.859233 H          1 UNL1 0.000
    58 H       5.131686    -0.743620    -3.425253 H          1 UNL1 0.000
    59 H       4.133543     0.609865    -2.878788 H          1 UNL1 0.000
    60 H       3.431401    -0.701524    -3.903003 H          1 UNL1 0.000
@<TRIPOS>BOND
     1      1      2   2
     2      2      3   1
     3      3      4   2
     4      4      5   1
     5      5      6   2
     6      6      1   1
     7      4      7   1
     8      7      8   1
     9      8      9   2
    10      9     10   1
    11     10     11   2
    12     11     12   1
    13     12     13   2
    14     13      8   1
    15      1     14   1
    16     11     15   1
    17     16     17   2
    18     17     18   1
    19     18     19   2
    20     19     20   1
    21     20     21   2
    22     21     16   1
    23     19     22   1
    24     22     23   2
    25     23     24   1
    26     24     25   2
    27     25     20   1
    28      7     16   1
    29      2     26   1
    30      3     27   1
    31      5     28   1
    32      6     29   1
    33      9     30   1
    34     10     31   1
    35     12     32   1
    36     13     33   1
    37     14     34   1
    38     14     35   1
    39     14     36   1
    40     15     37   1
    41     15     38   1
    42     15     39   1
    43     17     40   1
    44     18     41   1
    45     21     42   1
    46     22     43   1
    47     23     44   1
    48     25     45   1
    49     46     47   2
    50     47     48   1
    51     48     49   2
    52     49     50   1
    53     50     51   2
    54     51     46   1
    55     52     53   1
    56     49     52   1
    57     47     54   1
    58     48     55   1
    59     50     56   1
    60     51     57   1
    61     53     58   1
    62     53     59   1
    63     53     60   1
    64     24     46   1
