# Produced with molli package
@<TRIPOS>MOLECULE
C_5_O
55 59 0 0 0
SMALL
USER_CHARGES

@<TRIPOS>ATOM
     1 C      -7.493410     4.308153     3.297262 C          1 UNL1 0.000
     2 C      -8.047440     3.155886     3.861988 C          1 UNL1 0.000
     3 C      -7.377904     1.928404     3.779424 C          1 UNL1 0.000
     4 C      -6.145414     1.811464     3.115278 C          1 UNL1 0.000
     5 C      -5.588075     2.988277     2.580711 C          1 UNL1 0.000
     6 C      -6.251595     4.217375     2.666710 C          1 UNL1 0.000
     7 N      -5.455726     0.545522     3.003463 N          1 UNL1 0.000
     8 C      -6.141837    -0.723526     2.924319 C          1 UNL1 0.000
     9 C      -7.403759    -0.844626     2.317638 C          1 UNL1 0.000
    10 C      -8.081367    -2.069979     2.278530 C          1 UNL1 0.000
    11 C      -7.508636    -3.215552     2.835706 C          1 UNL1 0.000
    12 C      -6.232875    -3.124255     3.396453 C          1 UNL1 0.000
    13 C      -5.560569    -1.897408     3.437753 C          1 UNL1 0.000
    14 C      -8.221826     5.615962     3.382142 C          1 UNL1 0.000
    15 C      -8.221780    -4.534013     2.799848 C          1 UNL1 0.000
    16 C      -4.018785     0.554637     3.002952 C          1 UNL1 0.000
    17 C      -3.315209     0.755068     4.196855 C          1 UNL1 0.000
    18 C      -1.920227     0.775706     4.195709 C          1 UNL1 0.000
    19 C      -1.203839     0.638904     2.997251 C          1 UNL1 0.000
    20 C      -1.906057     0.460426     1.781928 C          1 UNL1 0.000
    21 C      -3.308339     0.392569     1.803971 C          1 UNL1 0.000
    22 C       0.196138     0.697811     2.977525 C          1 UNL1 0.000
    23 C       0.896382     0.616093     1.771543 C          1 UNL1 0.000
    24 C       0.215792     0.467606     0.555943 C          1 UNL1 0.000
    25 C      -1.185235     0.380228     0.577626 C          1 UNL1 0.000
    26 H      -9.005484     3.203700     4.374761 H          1 UNL1 0.000
    27 H      -7.829046     1.063010     4.258308 H          1 UNL1 0.000
    28 H      -4.630495     2.963616     2.066587 H          1 UNL1 0.000
    29 H      -5.786625     5.097947     2.229234 H          1 UNL1 0.000
    30 H      -7.874529     0.018170     1.852682 H          1 UNL1 0.000
    31 H      -9.061213    -2.116400     1.808860 H          1 UNL1 0.000
    32 H      -5.752022    -4.005493     3.815224 H          1 UNL1 0.000
    33 H      -4.578504    -1.871735     3.902584 H          1 UNL1 0.000
    34 H      -7.683762     6.410164     2.853785 H          1 UNL1 0.000
    35 H      -8.331776     5.920289     4.427644 H          1 UNL1 0.000
    36 H      -9.212964     5.525916     2.925792 H          1 UNL1 0.000
    37 H      -7.771963    -5.185102     2.044098 H          1 UNL1 0.000
    38 H      -9.282922    -4.407197     2.561385 H          1 UNL1 0.000
    39 H      -8.163414    -5.025156     3.777133 H          1 UNL1 0.000
    40 H      -3.858940     0.883858     5.129155 H          1 UNL1 0.000
    41 H      -1.396795     0.920565     5.138246 H          1 UNL1 0.000
    42 H      -3.865951     0.253559     0.879932 H          1 UNL1 0.000
    43 H       0.755754     0.831419     3.900883 H          1 UNL1 0.000
    44 H       1.981563     0.695723     1.778928 H          1 UNL1 0.000
    45 H      -1.719605     0.277764    -0.366239 H          1 UNL1 0.000
    46 C       0.951280     0.433300    -0.707783 C          1 UNL1 0.000
    47 N       1.109154     1.630146    -1.324258 N          1 UNL1 0.000
    48 C       1.802064     1.644116    -2.483271 C          1 UNL1 0.000
    49 C       2.350288     0.514703    -3.066659 C          1 UNL1 0.000
    50 C       2.176734    -0.705456    -2.424368 C          1 UNL1 0.000
    51 C       1.467633    -0.751012    -1.226565 C          1 UNL1 0.000
    52 H       1.909632     2.621751    -2.944436 H          1 UNL1 0.000
    53 H       2.899510     0.585328    -3.998692 H          1 UNL1 0.000
    54 H       2.591538    -1.614311    -2.850412 H          1 UNL1 0.000
    55 H       1.323027    -1.692319    -0.706621 H          1 UNL1 0.000
@<TRIPOS>BOND
     1      1      2   2
     2      2      3   1
     3      3      4   2
     4      4      5   1
     5      5      6   2
     6      6      1   1
     7      4      7   1
     8      7      8   1
     9      8      9   2
    10      9     10   1
    11     10     11   2
    12     11     12   1
    13     12     13   2
    14     13      8   1
    15      1     14   1
    16     11     15   1
    17     16     17   2
    18     17     18   1
    19     18     19   2
    20     19     20   1
    21     20     21   2
    22     21     16   1
    23     19     22   1
    24     22     23   2
    25     23     24   1
    26     24     25   2
    27     25     20   1
    28      7     16   1
    29      2     26   1
    30      3     27   1
    31      5     28   1
    32      6     29   1
    33      9     30   1
    34     10     31   1
    35     12     32   1
    36     13     33   1
    37     14     34   1
    38     14     35   1
    39     14     36   1
    40     15     37   1
    41     15     38   1
    42     15     39   1
    43     17     40   1
    44     18     41   1
    45     21     42   1
    46     22     43   1
    47     23     44   1
    48     25     45   1
    49     46     47   2
    50     47     48   1
    51     48     49   2
    52     49     50   1
    53     50     51   2
    54     51     46   1
    55     48     52   1
    56     49     53   1
    57     50     54   1
    58     51     55   1
    59     24     46   1
