# Produced with molli package
@<TRIPOS>MOLECULE
C_5_K
58 62 0 0 0
SMALL
USER_CHARGES

@<TRIPOS>ATOM
     1 C      -7.425992     4.331534     2.908283 C          1 UNL1 0.000
     2 C      -8.065019     3.177636     2.450168 C          1 UNL1 0.000
     3 C      -7.394173     1.946011     2.437580 C          1 UNL1 0.000
     4 C      -6.083333     1.816139     2.926491 C          1 UNL1 0.000
     5 C      -5.447420     2.999511     3.352698 C          1 UNL1 0.000
     6 C      -6.106688     4.234365     3.350462 C          1 UNL1 0.000
     7 N      -5.396460     0.541059     2.973505 N          1 UNL1 0.000
     8 C      -6.065960    -0.739855     3.078301 C          1 UNL1 0.000
     9 C      -7.315365    -0.887260     3.703148 C          1 UNL1 0.000
    10 C      -7.967969    -2.127292     3.754145 C          1 UNL1 0.000
    11 C      -7.373351    -3.268784     3.210666 C          1 UNL1 0.000
    12 C      -6.104740    -3.155903     2.642842 C          1 UNL1 0.000
    13 C      -5.464410    -1.912537     2.579044 C          1 UNL1 0.000
    14 C      -8.149139     5.642982     2.979663 C          1 UNL1 0.000
    15 C      -8.084535    -4.588082     3.253907 C          1 UNL1 0.000
    16 C      -3.957743     0.544521     2.961040 C          1 UNL1 0.000
    17 C      -3.245083     0.448758     4.162339 C          1 UNL1 0.000
    18 C      -1.850593     0.464556     4.154073 C          1 UNL1 0.000
    19 C      -1.144545     0.534729     2.943593 C          1 UNL1 0.000
    20 C      -1.853885     0.608078     1.722615 C          1 UNL1 0.000
    21 C      -3.257815     0.636453     1.747699 C          1 UNL1 0.000
    22 C       0.255755     0.520481     2.922802 C          1 UNL1 0.000
    23 C       0.949948     0.543754     1.711312 C          1 UNL1 0.000
    24 C       0.264821     0.589492     0.489997 C          1 UNL1 0.000
    25 C      -1.138363     0.635357     0.511341 C          1 UNL1 0.000
    26 H      -9.092384     3.222631     2.095678 H          1 UNL1 0.000
    27 H      -7.920044     1.087370     2.028714 H          1 UNL1 0.000
    28 H      -4.424584     2.982357     3.719086 H          1 UNL1 0.000
    29 H      -5.578965     5.116007     3.707517 H          1 UNL1 0.000
    30 H      -7.801019    -0.037913     4.176132 H          1 UNL1 0.000
    31 H      -8.946424    -2.192236     4.225133 H          1 UNL1 0.000
    32 H      -5.601139    -4.029165     2.234472 H          1 UNL1 0.000
    33 H      -4.484633    -1.878765     2.110295 H          1 UNL1 0.000
    34 H      -7.495681     6.461748     2.660572 H          1 UNL1 0.000
    35 H      -8.478674     5.830878     4.006680 H          1 UNL1 0.000
    36 H      -9.027192     5.649995     2.325975 H          1 UNL1 0.000
    37 H      -7.521657    -5.364519     2.724685 H          1 UNL1 0.000
    38 H      -9.064104    -4.504354     2.771816 H          1 UNL1 0.000
    39 H      -8.218228    -4.913239     4.290145 H          1 UNL1 0.000
    40 H      -3.782085     0.381199     5.105124 H          1 UNL1 0.000
    41 H      -1.319691     0.408745     5.101597 H          1 UNL1 0.000
    42 H      -3.824598     0.700084     0.821309 H          1 UNL1 0.000
    43 H       0.821236     0.480563     3.851144 H          1 UNL1 0.000
    44 H       2.038078     0.525310     1.726972 H          1 UNL1 0.000
    45 H      -1.682757     0.668020    -0.431474 H          1 UNL1 0.000
    46 C       1.006550     0.577306    -0.775983 C          1 UNL1 0.000
    47 C       1.026508     1.708997    -1.609994 C          1 UNL1 0.000
    48 C       1.760743     1.709753    -2.799006 C          1 UNL1 0.000
    49 C       2.483177     0.566326    -3.150915 C          1 UNL1 0.000
    50 C       2.474857    -0.576231    -2.347261 C          1 UNL1 0.000
    51 C       1.731846    -0.564767    -1.164785 C          1 UNL1 0.000
    52 N       3.271102     0.568725    -4.375587 N          1 UNL1 0.000
    53 O       4.388830     0.037344    -4.332881 O          1 UNL1 0.000
    54 O       2.768847     1.104275    -5.373584 O          1 UNL1 0.000
    55 H       0.479318     2.605656    -1.322132 H          1 UNL1 0.000
    56 H       1.774027     2.598728    -3.425534 H          1 UNL1 0.000
    57 H       3.032629    -1.466916    -2.627429 H          1 UNL1 0.000
    58 H       1.717718    -1.456137    -0.538573 H          1 UNL1 0.000
@<TRIPOS>BOND
     1      1      2   2
     2      2      3   1
     3      3      4   2
     4      4      5   1
     5      5      6   2
     6      6      1   1
     7      4      7   1
     8      7      8   1
     9      8      9   2
    10      9     10   1
    11     10     11   2
    12     11     12   1
    13     12     13   2
    14     13      8   1
    15      1     14   1
    16     11     15   1
    17     16     17   2
    18     17     18   1
    19     18     19   2
    20     19     20   1
    21     20     21   2
    22     21     16   1
    23     19     22   1
    24     22     23   2
    25     23     24   1
    26     24     25   2
    27     25     20   1
    28      7     16   1
    29      2     26   1
    30      3     27   1
    31      5     28   1
    32      6     29   1
    33      9     30   1
    34     10     31   1
    35     12     32   1
    36     13     33   1
    37     14     34   1
    38     14     35   1
    39     14     36   1
    40     15     37   1
    41     15     38   1
    42     15     39   1
    43     17     40   1
    44     18     41   1
    45     21     42   1
    46     22     43   1
    47     23     44   1
    48     25     45   1
    49     46     47   2
    50     47     48   1
    51     48     49   2
    52     49     50   1
    53     50     51   2
    54     51     46   1
    55     52     53   2
    56     52     54   1
    57     49     52   1
    58     47     55   1
    59     48     56   1
    60     50     57   1
    61     51     58   1
    62     24     46   1
