# Produced with molli package
@<TRIPOS>MOLECULE
C_5_R
57 61 0 0 0
SMALL
USER_CHARGES

@<TRIPOS>ATOM
     1 C      -7.383877     4.329111     3.133062 C          1 UNL1 0.000
     2 C      -7.997600     3.164559     3.600077 C          1 UNL1 0.000
     3 C      -7.331379     1.933164     3.540558 C          1 UNL1 0.000
     4 C      -6.046167     1.818387     2.983732 C          1 UNL1 0.000
     5 C      -5.430150     3.011178     2.556626 C          1 UNL1 0.000
     6 C      -6.085758     4.246165     2.629419 C          1 UNL1 0.000
     7 N      -5.362397     0.545739     2.875165 N          1 UNL1 0.000
     8 C      -6.047033    -0.727358     2.813299 C          1 UNL1 0.000
     9 C      -7.303019    -0.866783     2.198653 C          1 UNL1 0.000
    10 C      -7.990294    -2.088077     2.205400 C          1 UNL1 0.000
    11 C      -7.422948    -3.218524     2.797320 C          1 UNL1 0.000
    12 C      -6.149347    -3.113822     3.359536 C          1 UNL1 0.000
    13 C      -5.471287    -1.889307     3.360887 C          1 UNL1 0.000
    14 C      -8.110015     5.639633     3.186169 C          1 UNL1 0.000
    15 C      -8.165007    -4.519956     2.860497 C          1 UNL1 0.000
    16 C      -3.924502     0.544888     2.877488 C          1 UNL1 0.000
    17 C      -3.221700     0.675730     4.081212 C          1 UNL1 0.000
    18 C      -1.826839     0.667961     4.084550 C          1 UNL1 0.000
    19 C      -1.110072     0.568449     2.882293 C          1 UNL1 0.000
    20 C      -1.809410     0.471139     1.657421 C          1 UNL1 0.000
    21 C      -3.213645     0.435490     1.672057 C          1 UNL1 0.000
    22 C       0.290725     0.577946     2.872992 C          1 UNL1 0.000
    23 C       0.995661     0.513541     1.668582 C          1 UNL1 0.000
    24 C       0.320871     0.446121     0.441199 C          1 UNL1 0.000
    25 C      -1.083497     0.425422     0.452820 C          1 UNL1 0.000
    26 H      -9.001444     3.204165     4.017185 H          1 UNL1 0.000
    27 H      -7.836570     1.063493     3.952139 H          1 UNL1 0.000
    28 H      -4.426395     3.000641     2.139594 H          1 UNL1 0.000
    29 H      -5.569777     5.137149     2.278854 H          1 UNL1 0.000
    30 H      -7.767966    -0.019601     1.700476 H          1 UNL1 0.000
    31 H      -8.974776    -2.141856     1.746262 H          1 UNL1 0.000
    32 H      -5.676969    -3.981095     3.815565 H          1 UNL1 0.000
    33 H      -4.491474    -1.856145     3.829215 H          1 UNL1 0.000
    34 H      -7.519166     6.444285     2.735802 H          1 UNL1 0.000
    35 H      -8.320467     5.914364     4.224340 H          1 UNL1 0.000
    36 H      -9.052188     5.570680     2.632529 H          1 UNL1 0.000
    37 H      -7.556793    -5.326862     2.439506 H          1 UNL1 0.000
    38 H      -9.101617    -4.476963     2.295316 H          1 UNL1 0.000
    39 H      -8.408812    -4.760014     3.900837 H          1 UNL1 0.000
    40 H      -3.766430     0.767067     5.017501 H          1 UNL1 0.000
    41 H      -1.304190     0.752809     5.034475 H          1 UNL1 0.000
    42 H      -3.771297     0.352189     0.741666 H          1 UNL1 0.000
    43 H       0.847725     0.649820     3.804602 H          1 UNL1 0.000
    44 H       2.083137     0.545980     1.693960 H          1 UNL1 0.000
    45 H      -1.616285     0.383984    -0.496601 H          1 UNL1 0.000
    46 C       1.066669     0.413938    -0.819743 C          1 UNL1 0.000
    47 N       0.910550     1.495114    -1.627457 N          1 UNL1 0.000
    48 C       1.632998     1.535437    -2.775069 C          1 UNL1 0.000
    49 C       2.501610     0.525438    -3.152918 C          1 UNL1 0.000
    50 C       2.643239    -0.593762    -2.333938 C          1 UNL1 0.000
    51 C       1.913119    -0.647161    -1.146904 C          1 UNL1 0.000
    52 N       3.259932     0.651365    -4.384120 N          1 UNL1 0.000
    53 O       2.823011     1.414461    -5.253650 O          1 UNL1 0.000
    54 O       4.300739    -0.016233    -4.483045 O          1 UNL1 0.000
    55 H       1.486667     2.433070    -3.370738 H          1 UNL1 0.000
    56 H       3.306830    -1.413087    -2.599411 H          1 UNL1 0.000
    57 H       2.003240    -1.504543    -0.485869 H          1 UNL1 0.000
@<TRIPOS>BOND
     1      1      2   2
     2      2      3   1
     3      3      4   2
     4      4      5   1
     5      5      6   2
     6      6      1   1
     7      4      7   1
     8      7      8   1
     9      8      9   2
    10      9     10   1
    11     10     11   2
    12     11     12   1
    13     12     13   2
    14     13      8   1
    15      1     14   1
    16     11     15   1
    17     16     17   2
    18     17     18   1
    19     18     19   2
    20     19     20   1
    21     20     21   2
    22     21     16   1
    23     19     22   1
    24     22     23   2
    25     23     24   1
    26     24     25   2
    27     25     20   1
    28      7     16   1
    29      2     26   1
    30      3     27   1
    31      5     28   1
    32      6     29   1
    33      9     30   1
    34     10     31   1
    35     12     32   1
    36     13     33   1
    37     14     34   1
    38     14     35   1
    39     14     36   1
    40     15     37   1
    41     15     38   1
    42     15     39   1
    43     17     40   1
    44     18     41   1
    45     21     42   1
    46     22     43   1
    47     23     44   1
    48     25     45   1
    49     46     47   2
    50     47     48   1
    51     48     49   2
    52     49     50   1
    53     50     51   2
    54     51     46   1
    55     52     53   2
    56     52     54   1
    57     49     52   1
    58     48     55   1
    59     50     56   1
    60     51     57   1
    61     24     46   1
