# Produced with molli package
@<TRIPOS>MOLECULE
C_5_T
59 63 0 0 0
SMALL
USER_CHARGES

@<TRIPOS>ATOM
     1 C      -7.415766     4.226872     2.879441 C          1 UNL1 0.000
     2 C      -7.969120     3.102327     2.262693 C          1 UNL1 0.000
     3 C      -7.283741     1.880935     2.264369 C          1 UNL1 0.000
     4 C      -6.041073     1.739438     2.905236 C          1 UNL1 0.000
     5 C      -5.482445     2.890738     3.489091 C          1 UNL1 0.000
     6 C      -6.162219     4.113811     3.484971 C          1 UNL1 0.000
     7 N      -5.356801     0.468254     2.959020 N          1 UNL1 0.000
     8 C      -6.050145    -0.796834     3.070706 C          1 UNL1 0.000
     9 C      -7.307756    -0.902742     3.689126 C          1 UNL1 0.000
    10 C      -7.981914    -2.127837     3.769467 C          1 UNL1 0.000
    11 C      -7.405552    -3.291933     3.254927 C          1 UNL1 0.000
    12 C      -6.141886    -3.212581     2.667732 C          1 UNL1 0.000
    13 C      -5.474532    -1.984800     2.581754 C          1 UNL1 0.000
    14 C      -8.158755     5.528269     2.931149 C          1 UNL1 0.000
    15 C      -8.144884    -4.594440     3.325907 C          1 UNL1 0.000
    16 C      -3.919778     0.462896     2.961160 C          1 UNL1 0.000
    17 C      -3.217404     0.276020     4.157973 C          1 UNL1 0.000
    18 C      -1.822560     0.266032     4.159986 C          1 UNL1 0.000
    19 C      -1.104693     0.398130     2.962029 C          1 UNL1 0.000
    20 C      -1.803944     0.564156     1.743454 C          1 UNL1 0.000
    21 C      -3.207434     0.621119     1.762407 C          1 UNL1 0.000
    22 C       0.295093     0.350764     2.947453 C          1 UNL1 0.000
    23 C       0.998562     0.424892     1.743204 C          1 UNL1 0.000
    24 C       0.323270     0.557682     0.522628 C          1 UNL1 0.000
    25 C      -1.078170     0.644765     0.540868 C          1 UNL1 0.000
    26 H      -8.939866     3.162071     1.776033 H          1 UNL1 0.000
    27 H      -7.735046     1.035101     1.751249 H          1 UNL1 0.000
    28 H      -4.517864     2.846983     3.987593 H          1 UNL1 0.000
    29 H      -5.706378     4.974170     3.969969 H          1 UNL1 0.000
    30 H      -7.779261    -0.030140     4.133906 H          1 UNL1 0.000
    31 H      -8.961274    -2.163694     4.241430 H          1 UNL1 0.000
    32 H      -5.662253    -4.101763     2.264951 H          1 UNL1 0.000
    33 H      -4.498136    -1.971583     2.104163 H          1 UNL1 0.000
    34 H      -7.512837     6.350166     2.605819 H          1 UNL1 0.000
    35 H      -8.499227     5.723049     3.953416 H          1 UNL1 0.000
    36 H      -9.035598     5.515925     2.275744 H          1 UNL1 0.000
    37 H      -7.534772    -5.423471     2.952152 H          1 UNL1 0.000
    38 H      -9.053726    -4.543768     2.717636 H          1 UNL1 0.000
    39 H      -8.416487    -4.821001     4.361823 H          1 UNL1 0.000
    40 H      -3.762239     0.153003     5.090425 H          1 UNL1 0.000
    41 H      -1.300072     0.135785     5.105207 H          1 UNL1 0.000
    42 H      -3.763994     0.751952     0.836517 H          1 UNL1 0.000
    43 H       0.853381     0.239544     3.874587 H          1 UNL1 0.000
    44 H       2.085463     0.372660     1.760415 H          1 UNL1 0.000
    45 H      -1.612972     0.745067    -0.403033 H          1 UNL1 0.000
    46 C       1.068920     0.576501    -0.741115 C          1 UNL1 0.000
    47 C       1.130275     1.732418    -1.531165 C          1 UNL1 0.000
    48 C       1.860145     1.747558    -2.724737 C          1 UNL1 0.000
    49 C       2.541468     0.604189    -3.154997 C          1 UNL1 0.000
    50 C       2.474724    -0.556913    -2.378428 C          1 UNL1 0.000
    51 C       1.748789    -0.568442    -1.184287 C          1 UNL1 0.000
    52 C       3.329240     0.605606    -4.431257 C          1 UNL1 0.000
    53 H       0.617657     2.637581    -1.212180 H          1 UNL1 0.000
    54 H       1.894654     2.662755    -3.311249 H          1 UNL1 0.000
    55 H       2.989093    -1.460851    -2.696919 H          1 UNL1 0.000
    56 H       1.710260    -1.484862    -0.598454 H          1 UNL1 0.000
    57 H       2.891630    -0.099419    -5.145180 H          1 UNL1 0.000
    58 H       4.367712     0.319869    -4.233963 H          1 UNL1 0.000
    59 H       3.339114     1.596661    -4.896472 H          1 UNL1 0.000
@<TRIPOS>BOND
     1      1      2   2
     2      2      3   1
     3      3      4   2
     4      4      5   1
     5      5      6   2
     6      6      1   1
     7      4      7   1
     8      7      8   1
     9      8      9   2
    10      9     10   1
    11     10     11   2
    12     11     12   1
    13     12     13   2
    14     13      8   1
    15      1     14   1
    16     11     15   1
    17     16     17   2
    18     17     18   1
    19     18     19   2
    20     19     20   1
    21     20     21   2
    22     21     16   1
    23     19     22   1
    24     22     23   2
    25     23     24   1
    26     24     25   2
    27     25     20   1
    28      7     16   1
    29      2     26   1
    30      3     27   1
    31      5     28   1
    32      6     29   1
    33      9     30   1
    34     10     31   1
    35     12     32   1
    36     13     33   1
    37     14     34   1
    38     14     35   1
    39     14     36   1
    40     15     37   1
    41     15     38   1
    42     15     39   1
    43     17     40   1
    44     18     41   1
    45     21     42   1
    46     22     43   1
    47     23     44   1
    48     25     45   1
    49     46     47   2
    50     47     48   1
    51     48     49   2
    52     49     50   1
    53     50     51   2
    54     51     46   1
    55     49     52   1
    56     47     53   1
    57     48     54   1
    58     50     55   1
    59     51     56   1
    60     52     57   1
    61     52     58   1
    62     52     59   1
    63     24     46   1
