# Produced with molli package
@<TRIPOS>MOLECULE
C_6_O
55 59 0 0 0
SMALL
USER_CHARGES

@<TRIPOS>ATOM
     1 C      -5.981953     4.359182     0.671721 C          1 UNL1 0.000
     2 C      -6.622656     3.202619     1.121626 C          1 UNL1 0.000
     3 C      -5.961615     1.966003     1.105598 C          1 UNL1 0.000
     4 C      -4.654605     1.835953     0.606917 C          1 UNL1 0.000
     5 C      -4.010855     3.025203     0.208773 C          1 UNL1 0.000
     6 C      -4.659823     4.265123     0.240418 C          1 UNL1 0.000
     7 N      -3.978023     0.555754     0.526198 N          1 UNL1 0.000
     8 C      -4.660335    -0.721857     0.478041 C          1 UNL1 0.000
     9 C      -5.911667    -0.877344    -0.142402 C          1 UNL1 0.000
    10 C      -6.575847    -2.111978    -0.155732 C          1 UNL1 0.000
    11 C      -5.991471    -3.239303     0.425207 C          1 UNL1 0.000
    12 C      -4.724778    -3.117024     0.998253 C          1 UNL1 0.000
    13 C      -4.070052    -1.879982     1.018957 C          1 UNL1 0.000
    14 C      -6.697642     5.676275     0.679898 C          1 UNL1 0.000
    15 C      -6.695513    -4.562987     0.442459 C          1 UNL1 0.000
    16 C      -2.529891     0.546953     0.459535 C          1 UNL1 0.000
    17 C      -1.813971     0.615932     1.664176 C          1 UNL1 0.000
    18 C      -0.424813     0.594261     1.654006 C          1 UNL1 0.000
    19 C       0.286597     0.535086     0.443146 C          1 UNL1 0.000
    20 C      -0.420631     0.490943    -0.794382 C          1 UNL1 0.000
    21 C      -1.842793     0.491016    -0.787028 C          1 UNL1 0.000
    22 C       0.237341     0.454529    -2.048316 C          1 UNL1 0.000
    23 C      -0.462734     0.441372    -3.254968 C          1 UNL1 0.000
    24 C      -1.847500     0.448842    -3.244059 C          1 UNL1 0.000
    25 C      -2.524966     0.465995    -2.026426 C          1 UNL1 0.000
    26 H      -7.644952     3.251692     1.490170 H          1 UNL1 0.000
    27 H      -6.492371     1.105202     1.502966 H          1 UNL1 0.000
    28 H      -2.987388     3.011504    -0.156222 H          1 UNL1 0.000
    29 H      -4.119524     5.150078    -0.087821 H          1 UNL1 0.000
    30 H      -6.385816    -0.037699    -0.643803 H          1 UNL1 0.000
    31 H      -7.552540    -2.180732    -0.629123 H          1 UNL1 0.000
    32 H      -4.234571    -3.982196     1.439472 H          1 UNL1 0.000
    33 H      -3.089720    -1.839796     1.485492 H          1 UNL1 0.000
    34 H      -6.113550     6.451671     0.172531 H          1 UNL1 0.000
    35 H      -6.878074     6.002698     1.708478 H          1 UNL1 0.000
    36 H      -7.654403     5.590200     0.154338 H          1 UNL1 0.000
    37 H      -6.094105    -5.319667    -0.071441 H          1 UNL1 0.000
    38 H      -7.667797    -4.508555    -0.057771 H          1 UNL1 0.000
    39 H      -6.867664    -4.882500     1.475722 H          1 UNL1 0.000
    40 H      -2.348821     0.664205     2.609363 H          1 UNL1 0.000
    41 H       0.113893     0.618389     2.599477 H          1 UNL1 0.000
    42 H       1.324994     0.433368    -2.099174 H          1 UNL1 0.000
    43 H       0.077370     0.421654    -4.197316 H          1 UNL1 0.000
    44 H      -2.405005     0.438967    -4.176288 H          1 UNL1 0.000
    45 H      -3.613421     0.472495    -2.050908 H          1 UNL1 0.000
    46 C       1.754446     0.536982     0.506209 C          1 UNL1 0.000
    47 N       2.340177    -0.678788     0.630792 N          1 UNL1 0.000
    48 C       3.689397    -0.714247     0.675914 C          1 UNL1 0.000
    49 C       4.492940     0.411328     0.608366 C          1 UNL1 0.000
    50 C       3.877558     1.651607     0.490124 C          1 UNL1 0.000
    51 C       2.487946     1.719954     0.439454 C          1 UNL1 0.000
    52 H       4.121378    -1.706533     0.769287 H          1 UNL1 0.000
    53 H       5.572759     0.322514     0.647406 H          1 UNL1 0.000
    54 H       4.473110     2.558190     0.435401 H          1 UNL1 0.000
    55 H       1.985694     2.677115     0.342748 H          1 UNL1 0.000
@<TRIPOS>BOND
     1      1      2   2
     2      2      3   1
     3      3      4   2
     4      4      5   1
     5      5      6   2
     6      6      1   1
     7      4      7   1
     8      7      8   1
     9      8      9   2
    10      9     10   1
    11     10     11   2
    12     11     12   1
    13     12     13   2
    14     13      8   1
    15      1     14   1
    16     11     15   1
    17     16     17   2
    18     17     18   1
    19     18     19   2
    20     19     20   1
    21     20     21   2
    22     21     16   1
    23     20     22   1
    24     22     23   2
    25     23     24   1
    26     24     25   2
    27     25     21   1
    28      7     16   1
    29      2     26   1
    30      3     27   1
    31      5     28   1
    32      6     29   1
    33      9     30   1
    34     10     31   1
    35     12     32   1
    36     13     33   1
    37     14     34   1
    38     14     35   1
    39     14     36   1
    40     15     37   1
    41     15     38   1
    42     15     39   1
    43     17     40   1
    44     18     41   1
    45     22     42   1
    46     23     43   1
    47     24     44   1
    48     25     45   1
    49     46     47   2
    50     47     48   1
    51     48     49   2
    52     49     50   1
    53     50     51   2
    54     51     46   1
    55     48     52   1
    56     49     53   1
    57     50     54   1
    58     51     55   1
    59     19     46   1
