# Produced with molli package
@<TRIPOS>MOLECULE
C_6_K
58 62 0 0 0
SMALL
USER_CHARGES

@<TRIPOS>ATOM
     1 C      -5.930718     4.338775     0.748463 C          1 UNL1 0.000
     2 C      -6.557258     3.205394     1.273530 C          1 UNL1 0.000
     3 C      -5.920068     1.956460     1.244326 C          1 UNL1 0.000
     4 C      -4.653662     1.793023     0.659738 C          1 UNL1 0.000
     5 C      -4.025088     2.956714     0.171958 C          1 UNL1 0.000
     6 C      -4.651314     4.207259     0.211119 C          1 UNL1 0.000
     7 N      -3.997216     0.503243     0.581276 N          1 UNL1 0.000
     8 C      -4.697690    -0.764142     0.534575 C          1 UNL1 0.000
     9 C      -5.978631    -0.889800    -0.029529 C          1 UNL1 0.000
    10 C      -6.648695    -2.120995    -0.062351 C          1 UNL1 0.000
    11 C      -6.043526    -3.273423     0.443103 C          1 UNL1 0.000
    12 C      -4.755100    -3.177053     0.970702 C          1 UNL1 0.000
    13 C      -4.094153    -1.943767     1.011755 C          1 UNL1 0.000
    14 C      -6.627595     5.666144     0.759024 C          1 UNL1 0.000
    15 C      -6.748403    -4.596812     0.426281 C          1 UNL1 0.000
    16 C      -2.549773     0.482387     0.516835 C          1 UNL1 0.000
    17 C      -1.836350     0.596997     1.719848 C          1 UNL1 0.000
    18 C      -0.447453     0.589102     1.714043 C          1 UNL1 0.000
    19 C       0.265702     0.494504     0.507275 C          1 UNL1 0.000
    20 C      -0.439624     0.407059    -0.730616 C          1 UNL1 0.000
    21 C      -1.860124     0.386548    -0.725578 C          1 UNL1 0.000
    22 C       0.220810     0.359554    -1.983463 C          1 UNL1 0.000
    23 C      -0.477341     0.296652    -3.189837 C          1 UNL1 0.000
    24 C      -1.861252     0.270633    -3.180127 C          1 UNL1 0.000
    25 C      -2.540823     0.311381    -1.964253 C          1 UNL1 0.000
    26 H      -7.549201     3.284002     1.713124 H          1 UNL1 0.000
    27 H      -6.432035     1.113337     1.700476 H          1 UNL1 0.000
    28 H      -3.034529     2.911941    -0.272687 H          1 UNL1 0.000
    29 H      -4.127171     5.070808    -0.191979 H          1 UNL1 0.000
    30 H      -6.472079    -0.030759    -0.476424 H          1 UNL1 0.000
    31 H      -7.645602    -2.167605    -0.494825 H          1 UNL1 0.000
    32 H      -4.252109    -4.060817     1.357168 H          1 UNL1 0.000
    33 H      -3.095476    -1.924119     1.438971 H          1 UNL1 0.000
    34 H      -5.990459     6.456742     0.348052 H          1 UNL1 0.000
    35 H      -6.892463     5.948439     1.782585 H          1 UNL1 0.000
    36 H      -7.535783     5.618380     0.149605 H          1 UNL1 0.000
    37 H      -6.162764    -5.330878    -0.136599 H          1 UNL1 0.000
    38 H      -7.734220    -4.522096    -0.043969 H          1 UNL1 0.000
    39 H      -6.890515    -4.959743     1.449566 H          1 UNL1 0.000
    40 H      -2.374982     0.679753     2.660907 H          1 UNL1 0.000
    41 H       0.084489     0.661792     2.660895 H          1 UNL1 0.000
    42 H       1.307388     0.385288    -2.036738 H          1 UNL1 0.000
    43 H       0.063936     0.272711    -4.131723 H          1 UNL1 0.000
    44 H      -2.417563     0.226069    -4.112338 H          1 UNL1 0.000
    45 H      -3.629035     0.301538    -1.990640 H          1 UNL1 0.000
    46 C       1.736634     0.504835     0.570874 C          1 UNL1 0.000
    47 C       2.463053    -0.697392     0.521917 C          1 UNL1 0.000
    48 C       3.860121    -0.689904     0.544743 C          1 UNL1 0.000
    49 C       4.538006     0.531657     0.626231 C          1 UNL1 0.000
    50 C       3.833702     1.739547     0.692391 C          1 UNL1 0.000
    51 C       2.436885     1.719533     0.664164 C          1 UNL1 0.000
    52 N       6.002790     0.548710     0.632875 N          1 UNL1 0.000
    53 O       6.590033    -0.460915     0.214895 O          1 UNL1 0.000
    54 O       6.564312     1.569453     1.051393 O          1 UNL1 0.000
    55 H       1.935118    -1.647757     0.452448 H          1 UNL1 0.000
    56 H       4.398725    -1.634075     0.495892 H          1 UNL1 0.000
    57 H       4.351365     2.694355     0.754219 H          1 UNL1 0.000
    58 H       1.888885     2.660223     0.701541 H          1 UNL1 0.000
@<TRIPOS>BOND
     1      1      2   2
     2      2      3   1
     3      3      4   2
     4      4      5   1
     5      5      6   2
     6      6      1   1
     7      4      7   1
     8      7      8   1
     9      8      9   2
    10      9     10   1
    11     10     11   2
    12     11     12   1
    13     12     13   2
    14     13      8   1
    15      1     14   1
    16     11     15   1
    17     16     17   2
    18     17     18   1
    19     18     19   2
    20     19     20   1
    21     20     21   2
    22     21     16   1
    23     20     22   1
    24     22     23   2
    25     23     24   1
    26     24     25   2
    27     25     21   1
    28      7     16   1
    29      2     26   1
    30      3     27   1
    31      5     28   1
    32      6     29   1
    33      9     30   1
    34     10     31   1
    35     12     32   1
    36     13     33   1
    37     14     34   1
    38     14     35   1
    39     14     36   1
    40     15     37   1
    41     15     38   1
    42     15     39   1
    43     17     40   1
    44     18     41   1
    45     22     42   1
    46     23     43   1
    47     24     44   1
    48     25     45   1
    49     46     47   2
    50     47     48   1
    51     48     49   2
    52     49     50   1
    53     50     51   2
    54     51     46   1
    55     52     53   2
    56     52     54   1
    57     49     52   1
    58     47     55   1
    59     48     56   1
    60     50     57   1
    61     51     58   1
    62     19     46   1
