# Produced with molli package
@<TRIPOS>MOLECULE
C_6_Q
54 58 0 0 0
SMALL
USER_CHARGES

@<TRIPOS>ATOM
     1 C      -5.929027     4.352071     0.610243 C          1 UNL1 0.000
     2 C      -6.533234     3.208010     1.136540 C          1 UNL1 0.000
     3 C      -5.873212     1.972095     1.103419 C          1 UNL1 0.000
     4 C      -4.609451     1.829434     0.506143 C          1 UNL1 0.000
     5 C      -4.004942     3.001729     0.011257 C          1 UNL1 0.000
     6 C      -4.654029     4.241106     0.055821 C          1 UNL1 0.000
     7 N      -3.937103     0.548625     0.416605 N          1 UNL1 0.000
     8 C      -4.629702    -0.723932     0.399135 C          1 UNL1 0.000
     9 C      -5.914977    -0.863251    -0.153082 C          1 UNL1 0.000
    10 C      -6.599471    -2.085753    -0.120551 C          1 UNL1 0.000
    11 C      -6.000149    -3.220328     0.429764 C          1 UNL1 0.000
    12 C      -4.703348    -3.114625     0.935281 C          1 UNL1 0.000
    13 C      -4.027777    -1.888494     0.911747 C          1 UNL1 0.000
    14 C      -6.659660     5.661182     0.601103 C          1 UNL1 0.000
    15 C      -6.740900    -4.520560     0.524351 C          1 UNL1 0.000
    16 C      -2.488679     0.540956     0.379811 C          1 UNL1 0.000
    17 C      -1.799112     0.663301     1.595863 C          1 UNL1 0.000
    18 C      -0.409669     0.653280     1.618179 C          1 UNL1 0.000
    19 C       0.328836     0.548561     0.426767 C          1 UNL1 0.000
    20 C      -0.351299     0.443653    -0.822343 C          1 UNL1 0.000
    21 C      -1.773762     0.434214    -0.846577 C          1 UNL1 0.000
    22 C       0.334731     0.363597    -2.058997 C          1 UNL1 0.000
    23 C      -0.338227     0.294401    -3.278857 C          1 UNL1 0.000
    24 C      -1.722990     0.290630    -3.298616 C          1 UNL1 0.000
    25 C      -2.428038     0.353002    -2.098145 C          1 UNL1 0.000
    26 H      -7.525305     3.266655     1.578869 H          1 UNL1 0.000
    27 H      -6.367653     1.120682     1.563558 H          1 UNL1 0.000
    28 H      -3.019449     2.970260    -0.445554 H          1 UNL1 0.000
    29 H      -4.152538     5.113345    -0.357323 H          1 UNL1 0.000
    30 H      -6.405281    -0.017460    -0.628219 H          1 UNL1 0.000
    31 H      -7.605158    -2.139015    -0.531237 H          1 UNL1 0.000
    32 H      -4.206507    -3.983651     1.361197 H          1 UNL1 0.000
    33 H      -3.023973    -1.861187     1.326584 H          1 UNL1 0.000
    34 H      -5.980200     6.495572     0.397377 H          1 UNL1 0.000
    35 H      -7.127313     5.847569     1.573075 H          1 UNL1 0.000
    36 H      -7.432896     5.651166    -0.173767 H          1 UNL1 0.000
    37 H      -6.100040    -5.352040     0.213346 H          1 UNL1 0.000
    38 H      -7.624495    -4.525499    -0.122049 H          1 UNL1 0.000
    39 H      -7.067965    -4.688250     1.555740 H          1 UNL1 0.000
    40 H      -2.355952     0.746668     2.526156 H          1 UNL1 0.000
    41 H       0.102940     0.722700     2.576090 H          1 UNL1 0.000
    42 H       1.423540     0.352688    -2.087563 H          1 UNL1 0.000
    43 H       0.223058     0.241755    -4.207627 H          1 UNL1 0.000
    44 H      -2.258840     0.238890    -4.242171 H          1 UNL1 0.000
    45 H      -3.515898     0.351672    -2.146878 H          1 UNL1 0.000
    46 C       1.792950     0.578877     0.514812 C          1 UNL1 0.000
    47 N       2.429678    -0.619600     0.479020 N          1 UNL1 0.000
    48 C       3.780481    -0.570677     0.538221 C          1 UNL1 0.000
    49 C       4.479205     0.620938     0.631732 C          1 UNL1 0.000
    50 N       3.860487     1.821546     0.673788 N          1 UNL1 0.000
    51 C       2.506288     1.771866     0.613689 C          1 UNL1 0.000
    52 H       4.291321    -1.526213     0.505316 H          1 UNL1 0.000
    53 H       5.562212     0.641221     0.674093 H          1 UNL1 0.000
    54 H       2.001647     2.732079     0.638477 H          1 UNL1 0.000
@<TRIPOS>BOND
     1      1      2   2
     2      2      3   1
     3      3      4   2
     4      4      5   1
     5      5      6   2
     6      6      1   1
     7      4      7   1
     8      7      8   1
     9      8      9   2
    10      9     10   1
    11     10     11   2
    12     11     12   1
    13     12     13   2
    14     13      8   1
    15      1     14   1
    16     11     15   1
    17     16     17   2
    18     17     18   1
    19     18     19   2
    20     19     20   1
    21     20     21   2
    22     21     16   1
    23     20     22   1
    24     22     23   2
    25     23     24   1
    26     24     25   2
    27     25     21   1
    28      7     16   1
    29      2     26   1
    30      3     27   1
    31      5     28   1
    32      6     29   1
    33      9     30   1
    34     10     31   1
    35     12     32   1
    36     13     33   1
    37     14     34   1
    38     14     35   1
    39     14     36   1
    40     15     37   1
    41     15     38   1
    42     15     39   1
    43     17     40   1
    44     18     41   1
    45     22     42   1
    46     23     43   1
    47     24     44   1
    48     25     45   1
    49     46     47   2
    50     47     48   1
    51     48     49   2
    52     49     50   1
    53     50     51   2
    54     51     46   1
    55     48     52   1
    56     49     53   1
    57     51     54   1
    58     19     46   1
