# Produced with molli package
@<TRIPOS>MOLECULE
C_6_P
60 64 0 0 0
SMALL
USER_CHARGES

@<TRIPOS>ATOM
     1 C      -5.957736     4.258666     0.842823 C          1 UNL1 0.000
     2 C      -6.503013     3.088329     1.376684 C          1 UNL1 0.000
     3 C      -5.817058     1.871212     1.275420 C          1 UNL1 0.000
     4 C      -4.578469     1.780270     0.618134 C          1 UNL1 0.000
     5 C      -4.026911     2.977672     0.124225 C          1 UNL1 0.000
     6 C      -4.704411     4.197503     0.232720 C          1 UNL1 0.000
     7 N      -3.879556     0.521258     0.471808 N          1 UNL1 0.000
     8 C      -4.552349    -0.758938     0.408729 C          1 UNL1 0.000
     9 C      -5.829964    -0.894705    -0.162360 C          1 UNL1 0.000
    10 C      -6.490582    -2.129642    -0.194655 C          1 UNL1 0.000
    11 C      -5.882457    -3.272824     0.327779 C          1 UNL1 0.000
    12 C      -4.591914    -3.167197     0.850870 C          1 UNL1 0.000
    13 C      -3.937149    -1.930261     0.886723 C          1 UNL1 0.000
    14 C      -6.701689     5.555973     0.948549 C          1 UNL1 0.000
    15 C      -6.578769    -4.600698     0.309640 C          1 UNL1 0.000
    16 C      -2.432803     0.544063     0.412569 C          1 UNL1 0.000
    17 C      -1.725858     0.677386     1.618060 C          1 UNL1 0.000
    18 C      -0.336202     0.683281     1.620834 C          1 UNL1 0.000
    19 C       0.385141     0.582025     0.420128 C          1 UNL1 0.000
    20 C      -0.313249     0.484078    -0.820718 C          1 UNL1 0.000
    21 C      -1.734115     0.453991    -0.824879 C          1 UNL1 0.000
    22 C       0.357168     0.427314    -2.067640 C          1 UNL1 0.000
    23 C      -0.331649     0.352510    -3.278487 C          1 UNL1 0.000
    24 C      -1.715639     0.322342    -3.278746 C          1 UNL1 0.000
    25 C      -2.405191     0.368459    -2.068130 C          1 UNL1 0.000
    26 H      -7.467937     3.112684     1.878175 H          1 UNL1 0.000
    27 H      -6.264915     0.992669     1.732815 H          1 UNL1 0.000
    28 H      -3.062902     2.979962    -0.377942 H          1 UNL1 0.000
    29 H      -4.242298     5.093937    -0.174401 H          1 UNL1 0.000
    30 H      -6.327185    -0.036410    -0.607447 H          1 UNL1 0.000
    31 H      -7.484078    -2.185490    -0.633612 H          1 UNL1 0.000
    32 H      -4.084402    -4.046268     1.241998 H          1 UNL1 0.000
    33 H      -2.939584    -1.898408     1.315900 H          1 UNL1 0.000
    34 H      -6.203001     6.350775     0.383694 H          1 UNL1 0.000
    35 H      -6.766081     5.870193     1.994757 H          1 UNL1 0.000
    36 H      -7.712170     5.446642     0.541192 H          1 UNL1 0.000
    37 H      -6.075516    -5.281897    -0.383482 H          1 UNL1 0.000
    38 H      -7.622944    -4.501866    -0.004776 H          1 UNL1 0.000
    39 H      -6.577120    -5.041893     1.312075 H          1 UNL1 0.000
    40 H      -2.269563     0.756245     2.556427 H          1 UNL1 0.000
    41 H       0.191196     0.765057     2.569376 H          1 UNL1 0.000
    42 H       1.444750     0.453510    -2.111010 H          1 UNL1 0.000
    43 H       0.218140     0.321912    -4.215206 H          1 UNL1 0.000
    44 H      -2.263992     0.268115    -4.215053 H          1 UNL1 0.000
    45 H      -3.492872     0.352597    -2.102282 H          1 UNL1 0.000
    46 C       1.856165     0.578294     0.491306 C          1 UNL1 0.000
    47 C       2.580290     1.781739     0.469921 C          1 UNL1 0.000
    48 C       3.977237     1.772339     0.482691 C          1 UNL1 0.000
    49 C       4.655751     0.558257     0.536958 C          1 UNL1 0.000
    50 C       3.958494    -0.646495     0.555072 C          1 UNL1 0.000
    51 C       2.562585    -0.635116     0.542530 C          1 UNL1 0.000
    52 O       6.022046     0.547072     0.477448 O          1 UNL1 0.000
    53 C       6.571527     0.512272     1.793972 C          1 UNL1 0.000
    54 H       2.053733     2.732486     0.416754 H          1 UNL1 0.000
    55 H       4.529808     2.705826     0.434814 H          1 UNL1 0.000
    56 H       4.496201    -1.589782     0.562570 H          1 UNL1 0.000
    57 H       2.021964    -1.579521     0.547120 H          1 UNL1 0.000
    58 H       7.653309     0.376759     1.700568 H          1 UNL1 0.000
    59 H       6.176146    -0.326270     2.378118 H          1 UNL1 0.000
    60 H       6.390067     1.459100     2.313635 H          1 UNL1 0.000
@<TRIPOS>BOND
     1      1      2   2
     2      2      3   1
     3      3      4   2
     4      4      5   1
     5      5      6   2
     6      6      1   1
     7      4      7   1
     8      7      8   1
     9      8      9   2
    10      9     10   1
    11     10     11   2
    12     11     12   1
    13     12     13   2
    14     13      8   1
    15      1     14   1
    16     11     15   1
    17     16     17   2
    18     17     18   1
    19     18     19   2
    20     19     20   1
    21     20     21   2
    22     21     16   1
    23     20     22   1
    24     22     23   2
    25     23     24   1
    26     24     25   2
    27     25     21   1
    28      7     16   1
    29      2     26   1
    30      3     27   1
    31      5     28   1
    32      6     29   1
    33      9     30   1
    34     10     31   1
    35     12     32   1
    36     13     33   1
    37     14     34   1
    38     14     35   1
    39     14     36   1
    40     15     37   1
    41     15     38   1
    42     15     39   1
    43     17     40   1
    44     18     41   1
    45     22     42   1
    46     23     43   1
    47     24     44   1
    48     25     45   1
    49     46     47   2
    50     47     48   1
    51     48     49   2
    52     49     50   1
    53     50     51   2
    54     51     46   1
    55     52     53   1
    56     49     52   1
    57     47     54   1
    58     48     55   1
    59     50     56   1
    60     51     57   1
    61     53     58   1
    62     53     59   1
    63     53     60   1
    64     19     46   1
