# Produced with molli package
@<TRIPOS>MOLECULE
C_6_M
57 61 0 0 0
SMALL
USER_CHARGES

@<TRIPOS>ATOM
     1 C      -5.965153     4.381001     0.608732 C          1 UNL1 0.000
     2 C      -6.626081     3.224432     1.025846 C          1 UNL1 0.000
     3 C      -5.956229     1.992352     1.068052 C          1 UNL1 0.000
     4 C      -4.629225     1.857701     0.628195 C          1 UNL1 0.000
     5 C      -3.963235     3.052609     0.283111 C          1 UNL1 0.000
     6 C      -4.616355     4.291312     0.271386 C          1 UNL1 0.000
     7 N      -3.955959     0.573040     0.532483 N          1 UNL1 0.000
     8 C      -4.630968    -0.709535     0.423704 C          1 UNL1 0.000
     9 C      -5.926791    -0.846142    -0.101993 C          1 UNL1 0.000
    10 C      -6.585334    -2.084251    -0.132914 C          1 UNL1 0.000
    11 C      -5.941126    -3.243121     0.301423 C          1 UNL1 0.000
    12 C      -4.625520    -3.144612     0.754074 C          1 UNL1 0.000
    13 C      -3.984143    -1.900478     0.812103 C          1 UNL1 0.000
    14 C      -6.705258     5.679046     0.488323 C          1 UNL1 0.000
    15 C      -6.652292    -4.562752     0.329430 C          1 UNL1 0.000
    16 C      -2.505748     0.572143     0.459007 C          1 UNL1 0.000
    17 C      -1.782346     0.649568     1.659667 C          1 UNL1 0.000
    18 C      -0.391988     0.645106     1.642316 C          1 UNL1 0.000
    19 C       0.312140     0.582945     0.428037 C          1 UNL1 0.000
    20 C      -0.403622     0.526217    -0.805622 C          1 UNL1 0.000
    21 C      -1.824425     0.515871    -0.791181 C          1 UNL1 0.000
    22 C       0.248738     0.490042    -2.063008 C          1 UNL1 0.000
    23 C      -0.456964     0.457743    -3.265817 C          1 UNL1 0.000
    24 C      -1.840936     0.454435    -3.247836 C          1 UNL1 0.000
    25 C      -2.512875     0.480133    -2.027159 C          1 UNL1 0.000
    26 H      -7.674168     3.267558     1.314403 H          1 UNL1 0.000
    27 H      -6.507287     1.137751     1.449474 H          1 UNL1 0.000
    28 H      -2.918586     3.045772    -0.016318 H          1 UNL1 0.000
    29 H      -4.059604     5.176740    -0.026776 H          1 UNL1 0.000
    30 H      -6.454340     0.009252    -0.513655 H          1 UNL1 0.000
    31 H      -7.606968    -2.129302    -0.503760 H          1 UNL1 0.000
    32 H      -4.087512    -4.032924     1.077643 H          1 UNL1 0.000
    33 H      -2.964165    -1.884223     1.185977 H          1 UNL1 0.000
    34 H      -6.022637     6.513117     0.293883 H          1 UNL1 0.000
    35 H      -7.248158     5.900404     1.412124 H          1 UNL1 0.000
    36 H      -7.415949     5.624924    -0.343236 H          1 UNL1 0.000
    37 H      -6.012042    -5.354745    -0.072349 H          1 UNL1 0.000
    38 H      -7.565464    -4.538260    -0.274058 H          1 UNL1 0.000
    39 H      -6.927686    -4.814259     1.358982 H          1 UNL1 0.000
    40 H      -2.313476     0.700291     2.607222 H          1 UNL1 0.000
    41 H       0.148392     0.693336     2.586005 H          1 UNL1 0.000
    42 H       1.335450     0.494847    -2.122138 H          1 UNL1 0.000
    43 H       0.078771     0.438864    -4.210900 H          1 UNL1 0.000
    44 H      -2.403265     0.434921    -4.177197 H          1 UNL1 0.000
    45 H      -3.601185     0.485117    -2.047381 H          1 UNL1 0.000
    46 C       1.784356     0.588710     0.473390 C          1 UNL1 0.000
    47 C       2.498047     1.794840     0.395129 C          1 UNL1 0.000
    48 C       3.896219     1.797694     0.378504 C          1 UNL1 0.000
    49 C       4.600305     0.591933     0.445614 C          1 UNL1 0.000
    50 C       3.900403    -0.614324     0.542134 C          1 UNL1 0.000
    51 C       2.502120    -0.614382     0.557655 C          1 UNL1 0.000
    52 C       6.034228     0.591636     0.402725 C          1 UNL1 0.000
    53 N       7.192820     0.591164     0.361678 N          1 UNL1 0.000
    54 H       1.961516     2.739981     0.326981 H          1 UNL1 0.000
    55 H       4.426703     2.745093     0.302085 H          1 UNL1 0.000
    56 H       4.434337    -1.561427     0.594649 H          1 UNL1 0.000
    57 H       1.969113    -1.562094     0.616959 H          1 UNL1 0.000
@<TRIPOS>BOND
     1      1      2   2
     2      2      3   1
     3      3      4   2
     4      4      5   1
     5      5      6   2
     6      6      1   1
     7      4      7   1
     8      7      8   1
     9      8      9   2
    10      9     10   1
    11     10     11   2
    12     11     12   1
    13     12     13   2
    14     13      8   1
    15      1     14   1
    16     11     15   1
    17     16     17   2
    18     17     18   1
    19     18     19   2
    20     19     20   1
    21     20     21   2
    22     21     16   1
    23     20     22   1
    24     22     23   2
    25     23     24   1
    26     24     25   2
    27     25     21   1
    28      7     16   1
    29      2     26   1
    30      3     27   1
    31      5     28   1
    32      6     29   1
    33      9     30   1
    34     10     31   1
    35     12     32   1
    36     13     33   1
    37     14     34   1
    38     14     35   1
    39     14     36   1
    40     15     37   1
    41     15     38   1
    42     15     39   1
    43     17     40   1
    44     18     41   1
    45     22     42   1
    46     23     43   1
    47     24     44   1
    48     25     45   1
    49     46     47   2
    50     47     48   1
    51     48     49   2
    52     49     50   1
    53     50     51   2
    54     51     46   1
    55     52     53   3
    56     49     52   1
    57     47     54   1
    58     48     55   1
    59     50     56   1
    60     51     57   1
    61     19     46   1
