# Produced with molli package
@<TRIPOS>MOLECULE
C_6_N
53 57 0 0 0
SMALL
USER_CHARGES

@<TRIPOS>ATOM
     1 C      -5.926569     4.285195     0.337759 C          1 UNL1 0.000
     2 C      -6.551984     3.147954    -0.177691 C          1 UNL1 0.000
     3 C      -5.903400     1.904888    -0.157414 C          1 UNL1 0.000
     4 C      -4.629040     1.749370     0.413670 C          1 UNL1 0.000
     5 C      -4.006193     2.913905     0.903812 C          1 UNL1 0.000
     6 C      -4.644300     4.159362     0.873154 C          1 UNL1 0.000
     7 N      -3.954912     0.466792     0.461419 N          1 UNL1 0.000
     8 C      -4.637410    -0.809206     0.545036 C          1 UNL1 0.000
     9 C      -5.922270    -0.939569     1.097588 C          1 UNL1 0.000
    10 C      -6.590157    -2.172359     1.119180 C          1 UNL1 0.000
    11 C      -5.977723    -3.323811     0.618710 C          1 UNL1 0.000
    12 C      -4.675980    -3.229161     0.128976 C          1 UNL1 0.000
    13 C      -4.019900    -1.993267     0.094044 C          1 UNL1 0.000
    14 C      -6.621791     5.613544     0.358351 C          1 UNL1 0.000
    15 C      -6.702485    -4.636086     0.630601 C          1 UNL1 0.000
    16 C      -2.506761     0.464271     0.401196 C          1 UNL1 0.000
    17 C      -1.798268     0.368014     1.610629 C          1 UNL1 0.000
    18 C      -0.410504     0.396447     1.612547 C          1 UNL1 0.000
    19 C       0.293178     0.491124     0.404299 C          1 UNL1 0.000
    20 C      -0.392732     0.552548    -0.841525 C          1 UNL1 0.000
    21 C      -1.812333     0.547928    -0.841795 C          1 UNL1 0.000
    22 C       0.276399     0.606816    -2.090305 C          1 UNL1 0.000
    23 C      -0.417427     0.641362    -3.300354 C          1 UNL1 0.000
    24 C      -1.802037     0.635681    -3.297439 C          1 UNL1 0.000
    25 C      -2.488059     0.595735    -2.084564 C          1 UNL1 0.000
    26 H      -7.548745     3.216284    -0.607604 H          1 UNL1 0.000
    27 H      -6.410502     1.059699    -0.615182 H          1 UNL1 0.000
    28 H      -3.010933     2.872989     1.337214 H          1 UNL1 0.000
    29 H      -4.128382     5.028272     1.275848 H          1 UNL1 0.000
    30 H      -6.427630    -0.082094     1.533680 H          1 UNL1 0.000
    31 H      -7.595348    -2.223199     1.531930 H          1 UNL1 0.000
    32 H      -4.157866    -4.110414    -0.242433 H          1 UNL1 0.000
    33 H      -3.014107    -1.977159    -0.317322 H          1 UNL1 0.000
    34 H      -5.946513     6.405188     0.016989 H          1 UNL1 0.000
    35 H      -6.956559     5.843909     1.374929 H          1 UNL1 0.000
    36 H      -7.494948     5.618460    -0.301975 H          1 UNL1 0.000
    37 H      -6.135077    -5.411339     0.104411 H          1 UNL1 0.000
    38 H      -7.669720    -4.538051     0.126799 H          1 UNL1 0.000
    39 H      -6.862907    -4.970951     1.659813 H          1 UNL1 0.000
    40 H      -2.341296     0.294840     2.549911 H          1 UNL1 0.000
    41 H       0.122751     0.346604     2.559511 H          1 UNL1 0.000
    42 H       1.363914     0.610144    -2.133553 H          1 UNL1 0.000
    43 H       0.128123     0.669083    -4.239710 H          1 UNL1 0.000
    44 H      -2.354262     0.657818    -4.232986 H          1 UNL1 0.000
    45 H      -3.575992     0.584753    -2.115990 H          1 UNL1 0.000
    46 C       1.747806     0.535226     0.483184 C          1 UNL1 0.000
    47 C       2.504479    -0.619278     0.463136 C          1 UNL1 0.000
    48 S       4.182203    -0.292447     0.564410 S          1 UNL1 0.000
    49 C       3.906349     1.394286     0.646204 C          1 UNL1 0.000
    50 C       2.564620     1.702408     0.595789 C          1 UNL1 0.000
    51 H       2.158010    -1.641374     0.387221 H          1 UNL1 0.000
    52 H       4.740184     2.078004     0.727090 H          1 UNL1 0.000
    53 H       2.184925     2.716539     0.632914 H          1 UNL1 0.000
@<TRIPOS>BOND
     1      1      2   2
     2      2      3   1
     3      3      4   2
     4      4      5   1
     5      5      6   2
     6      6      1   1
     7      4      7   1
     8      7      8   1
     9      8      9   2
    10      9     10   1
    11     10     11   2
    12     11     12   1
    13     12     13   2
    14     13      8   1
    15      1     14   1
    16     11     15   1
    17     16     17   2
    18     17     18   1
    19     18     19   2
    20     19     20   1
    21     20     21   2
    22     21     16   1
    23     20     22   1
    24     22     23   2
    25     23     24   1
    26     24     25   2
    27     25     21   1
    28      7     16   1
    29      2     26   1
    30      3     27   1
    31      5     28   1
    32      6     29   1
    33      9     30   1
    34     10     31   1
    35     12     32   1
    36     13     33   1
    37     14     34   1
    38     14     35   1
    39     14     36   1
    40     15     37   1
    41     15     38   1
    42     15     39   1
    43     17     40   1
    44     18     41   1
    45     22     42   1
    46     23     43   1
    47     24     44   1
    48     25     45   1
    49     46     47   2
    50     47     48   1
    51     48     49   1
    52     49     50   2
    53     50     46   1
    54     47     51   1
    55     49     52   1
    56     50     53   1
    57     19     46   1
