# Produced with molli package
@<TRIPOS>MOLECULE
C_6_S
61 65 0 0 0
SMALL
USER_CHARGES

@<TRIPOS>ATOM
     1 C      -5.996544     4.277607     0.743364 C          1 UNL1 0.000
     2 C      -6.613534     3.112251     1.203918 C          1 UNL1 0.000
     3 C      -5.932617     1.886141     1.185660 C          1 UNL1 0.000
     4 C      -4.631429     1.774414     0.668503 C          1 UNL1 0.000
     5 C      -4.010549     2.973482     0.262135 C          1 UNL1 0.000
     6 C      -4.678059     4.203275     0.298104 C          1 UNL1 0.000
     7 N      -3.936732     0.504230     0.573300 N          1 UNL1 0.000
     8 C      -4.596684    -0.785339     0.504327 C          1 UNL1 0.000
     9 C      -5.870250    -0.948424    -0.066652 C          1 UNL1 0.000
    10 C      -6.507967    -2.196916    -0.096506 C          1 UNL1 0.000
    11 C      -5.869503    -3.333925     0.402755 C          1 UNL1 0.000
    12 C      -4.585299    -3.201752     0.931967 C          1 UNL1 0.000
    13 C      -3.959285    -1.950056     0.974991 C          1 UNL1 0.000
    14 C      -6.737764     5.580606     0.742199 C          1 UNL1 0.000
    15 C      -6.560980    -4.664316     0.423392 C          1 UNL1 0.000
    16 C      -2.489016     0.523577     0.492778 C          1 UNL1 0.000
    17 C      -1.762542     0.618397     1.689991 C          1 UNL1 0.000
    18 C      -0.373185     0.632285     1.667653 C          1 UNL1 0.000
    19 C       0.326909     0.577854     0.450898 C          1 UNL1 0.000
    20 C      -0.392622     0.515016    -0.780548 C          1 UNL1 0.000
    21 C      -1.812743     0.476861    -0.759965 C          1 UNL1 0.000
    22 C       0.253800     0.504026    -2.041526 C          1 UNL1 0.000
    23 C      -0.457347     0.464580    -3.241269 C          1 UNL1 0.000
    24 C      -1.840795     0.426419    -3.216762 C          1 UNL1 0.000
    25 C      -2.506761     0.428464    -1.992621 C          1 UNL1 0.000
    26 H      -7.633331     3.146217     1.581136 H          1 UNL1 0.000
    27 H      -6.444627     1.018872     1.593311 H          1 UNL1 0.000
    28 H      -2.991536     2.975722    -0.115496 H          1 UNL1 0.000
    29 H      -4.155551     5.095329    -0.039641 H          1 UNL1 0.000
    30 H      -6.387347    -0.104819    -0.515791 H          1 UNL1 0.000
    31 H      -7.507214    -2.269733    -0.520008 H          1 UNL1 0.000
    32 H      -4.058682    -4.070058     1.321942 H          1 UNL1 0.000
    33 H      -2.962134    -1.904180     1.403696 H          1 UNL1 0.000
    34 H      -6.144723     6.378217     0.281770 H          1 UNL1 0.000
    35 H      -6.976004     5.882887     1.766370 H          1 UNL1 0.000
    36 H      -7.664899     5.486019     0.167324 H          1 UNL1 0.000
    37 H      -5.861669    -5.467773     0.169078 H          1 UNL1 0.000
    38 H      -7.378286    -4.699263    -0.304195 H          1 UNL1 0.000
    39 H      -6.973311    -4.854284     1.419591 H          1 UNL1 0.000
    40 H      -2.290681     0.663889     2.639423 H          1 UNL1 0.000
    41 H       0.170141     0.684264     2.609383 H          1 UNL1 0.000
    42 H       1.339797     0.537372    -2.105392 H          1 UNL1 0.000
    43 H       0.073793     0.466688    -4.189136 H          1 UNL1 0.000
    44 H      -2.407198     0.399604    -4.143493 H          1 UNL1 0.000
    45 H      -3.594969     0.407322    -2.007024 H          1 UNL1 0.000
    46 C       1.798656     0.592608     0.494921 C          1 UNL1 0.000
    47 C       2.526218    -0.604032     0.441062 C          1 UNL1 0.000
    48 C       3.923884    -0.587997     0.428409 C          1 UNL1 0.000
    49 C       4.622627     0.625701     0.473710 C          1 UNL1 0.000
    50 C       3.903871     1.822624     0.561026 C          1 UNL1 0.000
    51 C       2.503409     1.803304     0.567969 C          1 UNL1 0.000
    52 C       6.115605     0.580403     0.420373 C          1 UNL1 0.000
    53 C       6.898007     1.863329     0.301614 C          1 UNL1 0.000
    54 O       6.694010    -0.501271     0.489665 O          1 UNL1 0.000
    55 H       2.004838    -1.558533     0.391535 H          1 UNL1 0.000
    56 H       4.464154    -1.531736     0.372317 H          1 UNL1 0.000
    57 H       4.400451     2.786058     0.621757 H          1 UNL1 0.000
    58 H       1.957527     2.744422     0.615984 H          1 UNL1 0.000
    59 H       7.095022     2.265506     1.298178 H          1 UNL1 0.000
    60 H       6.382398     2.601849    -0.315393 H          1 UNL1 0.000
    61 H       7.849779     1.648984    -0.195283 H          1 UNL1 0.000
@<TRIPOS>BOND
     1      1      2   2
     2      2      3   1
     3      3      4   2
     4      4      5   1
     5      5      6   2
     6      6      1   1
     7      4      7   1
     8      7      8   1
     9      8      9   2
    10      9     10   1
    11     10     11   2
    12     11     12   1
    13     12     13   2
    14     13      8   1
    15      1     14   1
    16     11     15   1
    17     16     17   2
    18     17     18   1
    19     18     19   2
    20     19     20   1
    21     20     21   2
    22     21     16   1
    23     20     22   1
    24     22     23   2
    25     23     24   1
    26     24     25   2
    27     25     21   1
    28      7     16   1
    29      2     26   1
    30      3     27   1
    31      5     28   1
    32      6     29   1
    33      9     30   1
    34     10     31   1
    35     12     32   1
    36     13     33   1
    37     14     34   1
    38     14     35   1
    39     14     36   1
    40     15     37   1
    41     15     38   1
    42     15     39   1
    43     17     40   1
    44     18     41   1
    45     22     42   1
    46     23     43   1
    47     24     44   1
    48     25     45   1
    49     46     47   2
    50     47     48   1
    51     48     49   2
    52     49     50   1
    53     50     51   2
    54     51     46   1
    55     49     52   1
    56     52     53   1
    57     52     54   2
    58     47     55   1
    59     48     56   1
    60     50     57   1
    61     51     58   1
    62     53     59   1
    63     53     60   1
    64     53     61   1
    65     19     46   1
