# Produced with molli package
@<TRIPOS>MOLECULE
C_6_L
60 65 0 0 0
SMALL
USER_CHARGES

@<TRIPOS>ATOM
     1 C      -5.913826     4.317750     0.415275 C          1 UNL1 0.000
     2 C      -6.544517     3.178661    -0.088639 C          1 UNL1 0.000
     3 C      -5.887108     1.939717    -0.089944 C          1 UNL1 0.000
     4 C      -4.597065     1.789301     0.446575 C          1 UNL1 0.000
     5 C      -3.965107     2.959151     0.912232 C          1 UNL1 0.000
     6 C      -4.611400     4.200981     0.901645 C          1 UNL1 0.000
     7 N      -3.918745     0.508264     0.484839 N          1 UNL1 0.000
     8 C      -4.593746    -0.772392     0.575776 C          1 UNL1 0.000
     9 C      -5.874638    -0.911932     1.134849 C          1 UNL1 0.000
    10 C      -6.533425    -2.149958     1.161804 C          1 UNL1 0.000
    11 C      -5.915774    -3.297663     0.659389 C          1 UNL1 0.000
    12 C      -4.614670    -3.195491     0.170293 C          1 UNL1 0.000
    13 C      -3.968907    -1.954559     0.128481 C          1 UNL1 0.000
    14 C      -6.610758     5.644749     0.453052 C          1 UNL1 0.000
    15 C      -6.623127    -4.619011     0.687156 C          1 UNL1 0.000
    16 C      -2.470164     0.507782     0.422548 C          1 UNL1 0.000
    17 C      -1.759848     0.424685     1.630120 C          1 UNL1 0.000
    18 C      -0.370790     0.428957     1.626736 C          1 UNL1 0.000
    19 C       0.344844     0.487410     0.419411 C          1 UNL1 0.000
    20 C      -0.356688     0.540374    -0.821551 C          1 UNL1 0.000
    21 C      -1.777985     0.562463    -0.820817 C          1 UNL1 0.000
    22 C       0.307739     0.557726    -2.072207 C          1 UNL1 0.000
    23 C      -0.386578     0.584076    -3.281974 C          1 UNL1 0.000
    24 C      -1.771252     0.606924    -3.277395 C          1 UNL1 0.000
    25 C      -2.454744     0.602361    -2.062923 C          1 UNL1 0.000
    26 H      -7.553222     3.240952    -0.490608 H          1 UNL1 0.000
    27 H      -6.402103     1.093348    -0.536369 H          1 UNL1 0.000
    28 H      -2.954894     2.926408     1.310500 H          1 UNL1 0.000
    29 H      -4.086389     5.073973     1.283273 H          1 UNL1 0.000
    30 H      -6.383916    -0.058611     1.574189 H          1 UNL1 0.000
    31 H      -7.535582    -2.207347     1.580925 H          1 UNL1 0.000
    32 H      -4.089061    -4.074613    -0.195519 H          1 UNL1 0.000
    33 H      -2.963405    -1.934100    -0.283389 H          1 UNL1 0.000
    34 H      -6.013718     6.403169    -0.063624 H          1 UNL1 0.000
    35 H      -6.765271     5.956561     1.491373 H          1 UNL1 0.000
    36 H      -7.589512     5.599617    -0.035273 H          1 UNL1 0.000
    37 H      -6.115055    -5.355093     0.054574 H          1 UNL1 0.000
    38 H      -7.644108    -4.512748     0.305946 H          1 UNL1 0.000
    39 H      -6.657722    -5.007857     1.709147 H          1 UNL1 0.000
    40 H      -2.299739     0.373333     2.572351 H          1 UNL1 0.000
    41 H       0.161899     0.383058     2.574804 H          1 UNL1 0.000
    42 H       1.395721     0.539356    -2.117867 H          1 UNL1 0.000
    43 H       0.158563     0.584095    -4.221699 H          1 UNL1 0.000
    44 H      -2.324006     0.623755    -4.212389 H          1 UNL1 0.000
    45 H      -3.543110     0.612991    -2.091686 H          1 UNL1 0.000
    46 C       1.816156     0.479900     0.488880 C          1 UNL1 0.000
    47 C       2.521033    -0.732148     0.479682 C          1 UNL1 0.000
    48 C       3.919449    -0.771199     0.520984 C          1 UNL1 0.000
    49 C       4.597448     0.450567     0.574616 C          1 UNL1 0.000
    50 C       3.937007     1.678304     0.594585 C          1 UNL1 0.000
    51 C       2.528975     1.691847     0.554419 C          1 UNL1 0.000
    52 N       5.947705     0.717020     0.614576 N          1 UNL1 0.000
    53 C       6.162416     2.069111     0.659904 C          1 UNL1 0.000
    54 C       4.934534     2.690450     0.650739 C          1 UNL1 0.000
    55 H       1.972105    -1.671462     0.429189 H          1 UNL1 0.000
    56 H       4.449242    -1.717762     0.506069 H          1 UNL1 0.000
    57 H       1.997485     2.639959     0.562350 H          1 UNL1 0.000
    58 H       6.670871     0.011299     0.608108 H          1 UNL1 0.000
    59 H       7.166084     2.470762     0.693860 H          1 UNL1 0.000
    60 H       4.767628     3.759218     0.678039 H          1 UNL1 0.000
@<TRIPOS>BOND
     1      1      2   2
     2      2      3   1
     3      3      4   2
     4      4      5   1
     5      5      6   2
     6      6      1   1
     7      4      7   1
     8      7      8   1
     9      8      9   2
    10      9     10   1
    11     10     11   2
    12     11     12   1
    13     12     13   2
    14     13      8   1
    15      1     14   1
    16     11     15   1
    17     16     17   2
    18     17     18   1
    19     18     19   2
    20     19     20   1
    21     20     21   2
    22     21     16   1
    23     20     22   1
    24     22     23   2
    25     23     24   1
    26     24     25   2
    27     25     21   1
    28      7     16   1
    29      2     26   1
    30      3     27   1
    31      5     28   1
    32      6     29   1
    33      9     30   1
    34     10     31   1
    35     12     32   1
    36     13     33   1
    37     14     34   1
    38     14     35   1
    39     14     36   1
    40     15     37   1
    41     15     38   1
    42     15     39   1
    43     17     40   1
    44     18     41   1
    45     22     42   1
    46     23     43   1
    47     24     44   1
    48     25     45   1
    49     46     47   2
    50     47     48   1
    51     48     49   2
    52     49     50   1
    53     50     51   2
    54     51     46   1
    55     49     52   1
    56     52     53   1
    57     53     54   2
    58     54     50   1
    59     47     55   1
    60     48     56   1
    61     51     57   1
    62     52     58   1
    63     53     59   1
    64     54     60   1
    65     19     46   1
