# Produced with molli package
@<TRIPOS>MOLECULE
C_6_R
57 61 0 0 0
SMALL
USER_CHARGES

@<TRIPOS>ATOM
     1 C      -5.959914     4.344006     0.675735 C          1 UNL1 0.000
     2 C      -6.559089     3.189055     1.183400 C          1 UNL1 0.000
     3 C      -5.889903     1.958393     1.138219 C          1 UNL1 0.000
     4 C      -4.613647     1.835869     0.562959 C          1 UNL1 0.000
     5 C      -4.007121     3.022473     0.106358 C          1 UNL1 0.000
     6 C      -4.666385     4.256000     0.161914 C          1 UNL1 0.000
     7 N      -3.931041     0.561165     0.466347 N          1 UNL1 0.000
     8 C      -4.614910    -0.715061     0.434764 C          1 UNL1 0.000
     9 C      -5.877449    -0.865340    -0.164414 C          1 UNL1 0.000
    10 C      -6.549418    -2.095179    -0.159683 C          1 UNL1 0.000
    11 C      -5.965136    -3.220950     0.424325 C          1 UNL1 0.000
    12 C      -4.687432    -3.104213     0.974463 C          1 UNL1 0.000
    13 C      -4.023054    -1.872104     0.974816 C          1 UNL1 0.000
    14 C      -6.676589     5.659584     0.729558 C          1 UNL1 0.000
    15 C      -6.676457    -4.540583     0.455968 C          1 UNL1 0.000
    16 C      -2.483816     0.560036     0.411528 C          1 UNL1 0.000
    17 C      -1.778844     0.650503     1.621481 C          1 UNL1 0.000
    18 C      -0.390012     0.624376     1.626544 C          1 UNL1 0.000
    19 C       0.333173     0.538301     0.424228 C          1 UNL1 0.000
    20 C      -0.362286     0.502788    -0.820220 C          1 UNL1 0.000
    21 C      -1.783658     0.494365    -0.826968 C          1 UNL1 0.000
    22 C       0.309520     0.486798    -2.067481 C          1 UNL1 0.000
    23 C      -0.378636     0.465099    -3.280826 C          1 UNL1 0.000
    24 C      -1.763024     0.446075    -3.283408 C          1 UNL1 0.000
    25 C      -2.453748     0.455906    -2.072744 C          1 UNL1 0.000
    26 H      -7.553901     3.235186     1.620898 H          1 UNL1 0.000
    27 H      -6.384906     1.095908     1.576558 H          1 UNL1 0.000
    28 H      -3.008466     3.010586    -0.322590 H          1 UNL1 0.000
    29 H      -4.157173     5.141919    -0.210949 H          1 UNL1 0.000
    30 H      -6.355053    -0.023289    -0.659167 H          1 UNL1 0.000
    31 H      -7.533507    -2.160542    -0.618190 H          1 UNL1 0.000
    32 H      -4.198762    -3.969907     1.416118 H          1 UNL1 0.000
    33 H      -3.037345    -1.832791     1.428803 H          1 UNL1 0.000
    34 H      -6.210106     6.393155     0.063175 H          1 UNL1 0.000
    35 H      -6.659410     6.056911     1.748789 H          1 UNL1 0.000
    36 H      -7.716114     5.541875     0.406011 H          1 UNL1 0.000
    37 H      -6.131669    -5.278715    -0.140944 H          1 UNL1 0.000
    38 H      -7.691703    -4.459980     0.054184 H          1 UNL1 0.000
    39 H      -6.755706    -4.900560     1.487337 H          1 UNL1 0.000
    40 H      -2.323920     0.722625     2.559677 H          1 UNL1 0.000
    41 H       0.136099     0.678421     2.577883 H          1 UNL1 0.000
    42 H       1.396731     0.519742    -2.109349 H          1 UNL1 0.000
    43 H       0.170764     0.472835    -4.218274 H          1 UNL1 0.000
    44 H      -2.310864     0.435616    -4.221617 H          1 UNL1 0.000
    45 H      -3.541735     0.455068    -2.108258 H          1 UNL1 0.000
    46 C       1.798105     0.470618     0.501993 C          1 UNL1 0.000
    47 N       2.457935     1.649145     0.355453 N          1 UNL1 0.000
    48 C       3.811882     1.619426     0.401847 C          1 UNL1 0.000
    49 C       4.528183     0.453127     0.602446 C          1 UNL1 0.000
    50 C       3.852359    -0.754917     0.762819 C          1 UNL1 0.000
    51 C       2.459688    -0.743242     0.706642 C          1 UNL1 0.000
    52 N       5.972670     0.502442     0.642693 N          1 UNL1 0.000
    53 O       6.536287     1.287849    -0.133005 O          1 UNL1 0.000
    54 O       6.544561    -0.245604     1.444424 O          1 UNL1 0.000
    55 H       4.294773     2.585204     0.275562 H          1 UNL1 0.000
    56 H       4.386370    -1.688766     0.917570 H          1 UNL1 0.000
    57 H       1.896567    -1.666557     0.811893 H          1 UNL1 0.000
@<TRIPOS>BOND
     1      1      2   2
     2      2      3   1
     3      3      4   2
     4      4      5   1
     5      5      6   2
     6      6      1   1
     7      4      7   1
     8      7      8   1
     9      8      9   2
    10      9     10   1
    11     10     11   2
    12     11     12   1
    13     12     13   2
    14     13      8   1
    15      1     14   1
    16     11     15   1
    17     16     17   2
    18     17     18   1
    19     18     19   2
    20     19     20   1
    21     20     21   2
    22     21     16   1
    23     20     22   1
    24     22     23   2
    25     23     24   1
    26     24     25   2
    27     25     21   1
    28      7     16   1
    29      2     26   1
    30      3     27   1
    31      5     28   1
    32      6     29   1
    33      9     30   1
    34     10     31   1
    35     12     32   1
    36     13     33   1
    37     14     34   1
    38     14     35   1
    39     14     36   1
    40     15     37   1
    41     15     38   1
    42     15     39   1
    43     17     40   1
    44     18     41   1
    45     22     42   1
    46     23     43   1
    47     24     44   1
    48     25     45   1
    49     46     47   2
    50     47     48   1
    51     48     49   2
    52     49     50   1
    53     50     51   2
    54     51     46   1
    55     52     53   2
    56     52     54   1
    57     49     52   1
    58     48     55   1
    59     50     56   1
    60     51     57   1
    61     19     46   1
