# Produced with molli package
@<TRIPOS>MOLECULE
C_6_T
59 63 0 0 0
SMALL
USER_CHARGES

@<TRIPOS>ATOM
     1 C      -5.913945     4.296624     0.619498 C          1 UNL1 0.000
     2 C      -6.530697     3.164449     1.156829 C          1 UNL1 0.000
     3 C      -5.881864     1.921793     1.141437 C          1 UNL1 0.000
     4 C      -4.611645     1.762728     0.562740 C          1 UNL1 0.000
     5 C      -3.985652     2.928918     0.079065 C          1 UNL1 0.000
     6 C      -4.622373     4.175028     0.108262 C          1 UNL1 0.000
     7 N      -3.950969     0.474483     0.485891 N          1 UNL1 0.000
     8 C      -4.651406    -0.793963     0.464733 C          1 UNL1 0.000
     9 C      -5.939034    -0.926485    -0.083171 C          1 UNL1 0.000
    10 C      -6.625095    -2.148660    -0.060312 C          1 UNL1 0.000
    11 C      -6.030131    -3.286520     0.487654 C          1 UNL1 0.000
    12 C      -4.725607    -3.191194     0.974659 C          1 UNL1 0.000
    13 C      -4.048935    -1.965557     0.961310 C          1 UNL1 0.000
    14 C      -6.610738     5.623816     0.636267 C          1 UNL1 0.000
    15 C      -6.753531    -4.599084     0.531208 C          1 UNL1 0.000
    16 C      -2.502820     0.455515     0.434702 C          1 UNL1 0.000
    17 C      -1.799209     0.581769     1.642920 C          1 UNL1 0.000
    18 C      -0.410073     0.570552     1.650093 C          1 UNL1 0.000
    19 C       0.313977     0.459110     0.451613 C          1 UNL1 0.000
    20 C      -0.380827     0.355449    -0.790693 C          1 UNL1 0.000
    21 C      -1.801332     0.343308    -0.799763 C          1 UNL1 0.000
    22 C       0.293392     0.280119    -2.034578 C          1 UNL1 0.000
    23 C      -0.392152     0.204596    -3.247300 C          1 UNL1 0.000
    24 C      -1.776394     0.192830    -3.252348 C          1 UNL1 0.000
    25 C      -2.469552     0.256861    -2.044598 C          1 UNL1 0.000
    26 H      -7.524288     3.237550     1.593461 H          1 UNL1 0.000
    27 H      -6.389135     1.079296     1.603831 H          1 UNL1 0.000
    28 H      -2.988930     2.889252    -0.352490 H          1 UNL1 0.000
    29 H      -4.098391     5.043158    -0.285131 H          1 UNL1 0.000
    30 H      -6.428551    -0.077502    -0.553237 H          1 UNL1 0.000
    31 H      -7.628795    -2.198313    -0.476290 H          1 UNL1 0.000
    32 H      -4.223863    -4.068255     1.377560 H          1 UNL1 0.000
    33 H      -3.041028    -1.944699     1.366304 H          1 UNL1 0.000
    34 H      -6.129625     6.333101    -0.045932 H          1 UNL1 0.000
    35 H      -6.593220     6.046978     1.644969 H          1 UNL1 0.000
    36 H      -7.650002     5.513464     0.309251 H          1 UNL1 0.000
    37 H      -6.298131    -5.305672    -0.169418 H          1 UNL1 0.000
    38 H      -7.809574    -4.483685     0.266047 H          1 UNL1 0.000
    39 H      -6.713151    -5.019219     1.541997 H          1 UNL1 0.000
    40 H      -2.345385     0.676300     2.578352 H          1 UNL1 0.000
    41 H       0.116140     0.655584     2.599150 H          1 UNL1 0.000
    42 H       1.381308     0.291413    -2.073097 H          1 UNL1 0.000
    43 H       0.160439     0.159471    -4.181716 H          1 UNL1 0.000
    44 H      -2.322337     0.139506    -4.190109 H          1 UNL1 0.000
    45 H      -3.557235     0.255330    -2.081931 H          1 UNL1 0.000
    46 C       1.784068     0.473959     0.525809 C          1 UNL1 0.000
    47 C       2.487421     1.686652     0.496339 C          1 UNL1 0.000
    48 C       3.884462     1.703596     0.520384 C          1 UNL1 0.000
    49 C       4.605884     0.506977     0.582207 C          1 UNL1 0.000
    50 C       3.908967    -0.706058     0.625313 C          1 UNL1 0.000
    51 C       2.511775    -0.722010     0.600401 C          1 UNL1 0.000
    52 C       6.105704     0.509815     0.573248 C          1 UNL1 0.000
    53 H       1.944513     2.627872     0.437131 H          1 UNL1 0.000
    54 H       4.402113     2.659235     0.482097 H          1 UNL1 0.000
    55 H       4.450588    -1.648327     0.669587 H          1 UNL1 0.000
    56 H       1.989231    -1.676198     0.623228 H          1 UNL1 0.000
    57 H       6.475400     0.054055    -0.350976 H          1 UNL1 0.000
    58 H       6.491899    -0.050073     1.430910 H          1 UNL1 0.000
    59 H       6.505430     1.527520     0.632178 H          1 UNL1 0.000
@<TRIPOS>BOND
     1      1      2   2
     2      2      3   1
     3      3      4   2
     4      4      5   1
     5      5      6   2
     6      6      1   1
     7      4      7   1
     8      7      8   1
     9      8      9   2
    10      9     10   1
    11     10     11   2
    12     11     12   1
    13     12     13   2
    14     13      8   1
    15      1     14   1
    16     11     15   1
    17     16     17   2
    18     17     18   1
    19     18     19   2
    20     19     20   1
    21     20     21   2
    22     21     16   1
    23     20     22   1
    24     22     23   2
    25     23     24   1
    26     24     25   2
    27     25     21   1
    28      7     16   1
    29      2     26   1
    30      3     27   1
    31      5     28   1
    32      6     29   1
    33      9     30   1
    34     10     31   1
    35     12     32   1
    36     13     33   1
    37     14     34   1
    38     14     35   1
    39     14     36   1
    40     15     37   1
    41     15     38   1
    42     15     39   1
    43     17     40   1
    44     18     41   1
    45     22     42   1
    46     23     43   1
    47     24     44   1
    48     25     45   1
    49     46     47   2
    50     47     48   1
    51     48     49   2
    52     49     50   1
    53     50     51   2
    54     51     46   1
    55     49     52   1
    56     47     53   1
    57     48     54   1
    58     50     55   1
    59     51     56   1
    60     52     57   1
    61     52     58   1
    62     52     59   1
    63     19     46   1
