# Produced with molli package
@<TRIPOS>MOLECULE
C_7_R
55 58 0 0 0
SMALL
USER_CHARGES

@<TRIPOS>ATOM
     1 C      -8.127421     4.217843     1.751606 C          1 UNL1 0.000
     2 C      -8.754100     3.070141     1.261247 C          1 UNL1 0.000
     3 C      -8.095522     1.833035     1.282178 C          1 UNL1 0.000
     4 C      -6.809466     1.694457     1.830576 C          1 UNL1 0.000
     5 C      -6.186911     2.867121     2.300999 C          1 UNL1 0.000
     6 C      -6.835106     4.107514     2.267495 C          1 UNL1 0.000
     7 N      -6.128868     0.418496     1.894492 N          1 UNL1 0.000
     8 C      -6.812968    -0.856320     1.957407 C          1 UNL1 0.000
     9 C      -8.070360    -1.000476     2.566695 C          1 UNL1 0.000
    10 C      -8.746777    -2.228247     2.566428 C          1 UNL1 0.000
    11 C      -8.170821    -3.358984     1.981284 C          1 UNL1 0.000
    12 C      -6.893207    -3.251793     1.432510 C          1 UNL1 0.000
    13 C      -6.227822    -2.020746     1.421569 C          1 UNL1 0.000
    14 C      -8.840993     5.536401     1.778152 C          1 UNL1 0.000
    15 C      -8.904968    -4.666152     1.970692 C          1 UNL1 0.000
    16 C      -4.694353     0.412679     1.802412 C          1 UNL1 0.000
    17 C      -3.908891     0.179147     2.938581 C          1 UNL1 0.000
    18 C      -2.514490     0.144465     2.836819 C          1 UNL1 0.000
    19 C      -1.883192     0.327027     1.598734 C          1 UNL1 0.000
    20 C      -2.675056     0.541422     0.462059 C          1 UNL1 0.000
    21 C      -4.066782     0.605032     0.564727 C          1 UNL1 0.000
    22 C      -0.418633     0.216679     1.521630 C          1 UNL1 0.000
    23 C       0.343302     0.912707     0.661161 C          1 UNL1 0.000
    24 H      -9.761046     3.124981     0.853598 H          1 UNL1 0.000
    25 H      -8.606771     0.977761     0.848338 H          1 UNL1 0.000
    26 H      -5.186434     2.830469     2.724525 H          1 UNL1 0.000
    27 H      -6.321141     4.983740     2.656381 H          1 UNL1 0.000
    28 H      -8.543849    -0.155690     3.060270 H          1 UNL1 0.000
    29 H      -9.730210    -2.291532     3.026926 H          1 UNL1 0.000
    30 H      -6.403184    -4.118966     0.995668 H          1 UNL1 0.000
    31 H      -5.243750    -1.987949     0.961338 H          1 UNL1 0.000
    32 H      -8.161281     6.348861     1.500617 H          1 UNL1 0.000
    33 H      -9.233679     5.727761     2.781922 H          1 UNL1 0.000
    34 H      -9.675496     5.551381     1.069549 H          1 UNL1 0.000
    35 H      -8.395679    -5.405148     1.342664 H          1 UNL1 0.000
    36 H      -9.912830    -4.531045     1.564436 H          1 UNL1 0.000
    37 H      -8.975060    -5.069288     2.985355 H          1 UNL1 0.000
    38 H      -4.386073     0.031799     3.904160 H          1 UNL1 0.000
    39 H      -1.926625    -0.028204     3.735784 H          1 UNL1 0.000
    40 H      -2.223796     0.639313    -0.521623 H          1 UNL1 0.000
    41 H      -4.668926     0.763143    -0.326422 H          1 UNL1 0.000
    42 H       0.043380    -0.467752     2.231173 H          1 UNL1 0.000
    43 H      -0.110615     1.623210    -0.022496 H          1 UNL1 0.000
    44 C       1.805647     0.798292     0.578543 C          1 UNL1 0.000
    45 N       2.394470    -0.243056     1.222957 N          1 UNL1 0.000
    46 C       3.741329    -0.356369     1.132470 C          1 UNL1 0.000
    47 C       4.512215     0.547176     0.429150 C          1 UNL1 0.000
    48 C       3.919442     1.617462    -0.230044 C          1 UNL1 0.000
    49 C       2.532530     1.737028    -0.157907 C          1 UNL1 0.000
    50 N       5.935681     0.369818     0.393200 N          1 UNL1 0.000
    51 O       6.607460     1.075404     1.152556 O          1 UNL1 0.000
    52 O       6.374767    -0.472430    -0.400860 O          1 UNL1 0.000
    53 H       4.171893    -1.205835     1.655026 H          1 UNL1 0.000
    54 H       4.509284     2.339717    -0.786614 H          1 UNL1 0.000
    55 H       2.032425     2.558385    -0.662581 H          1 UNL1 0.000
@<TRIPOS>BOND
     1      1      2   2
     2      2      3   1
     3      3      4   2
     4      4      5   1
     5      5      6   2
     6      6      1   1
     7      4      7   1
     8      7      8   1
     9      8      9   2
    10      9     10   1
    11     10     11   2
    12     11     12   1
    13     12     13   2
    14     13      8   1
    15      1     14   1
    16     11     15   1
    17     16     17   2
    18     17     18   1
    19     18     19   2
    20     19     20   1
    21     20     21   2
    22     21     16   1
    23     19     22   1
    24     22     23   2
    25      7     16   1
    26      2     24   1
    27      3     25   1
    28      5     26   1
    29      6     27   1
    30      9     28   1
    31     10     29   1
    32     12     30   1
    33     13     31   1
    34     14     32   1
    35     14     33   1
    36     14     34   1
    37     15     35   1
    38     15     36   1
    39     15     37   1
    40     17     38   1
    41     18     39   1
    42     20     40   1
    43     21     41   1
    44     22     42   1
    45     23     43   1
    46     44     45   2
    47     45     46   1
    48     46     47   2
    49     47     48   1
    50     48     49   2
    51     49     44   1
    52     50     51   2
    53     50     52   1
    54     47     50   1
    55     46     53   1
    56     48     54   1
    57     49     55   1
    58     23     44   1
