# Produced with molli package
@<TRIPOS>MOLECULE
C_7_T
57 60 0 0 0
SMALL
USER_CHARGES

@<TRIPOS>ATOM
     1 C      -8.209364     4.299582     2.134346 C          1 UNL1 0.000
     2 C      -8.681931     3.164797     2.800801 C          1 UNL1 0.000
     3 C      -8.013252     1.941801     2.682642 C          1 UNL1 0.000
     4 C      -6.862045     1.818716     1.887008 C          1 UNL1 0.000
     5 C      -6.402276     2.964374     1.215319 C          1 UNL1 0.000
     6 C      -7.070739     4.187486     1.331271 C          1 UNL1 0.000
     7 N      -6.171507     0.557338     1.760215 N          1 UNL1 0.000
     8 C      -6.910527    -0.680269     1.674569 C          1 UNL1 0.000
     9 C      -8.105549    -0.765554     0.941044 C          1 UNL1 0.000
    10 C      -8.819650    -1.966040     0.860550 C          1 UNL1 0.000
    11 C      -8.349995    -3.115470     1.503042 C          1 UNL1 0.000
    12 C      -7.167062    -3.040856     2.244322 C          1 UNL1 0.000
    13 C      -6.454530    -1.840289     2.324107 C          1 UNL1 0.000
    14 C      -8.950233     5.599849     2.232181 C          1 UNL1 0.000
    15 C      -9.125583    -4.397859     1.448085 C          1 UNL1 0.000
    16 C      -4.729759     0.531048     1.727837 C          1 UNL1 0.000
    17 C      -3.973721     1.292109     2.634876 C          1 UNL1 0.000
    18 C      -2.575588     1.250288     2.616808 C          1 UNL1 0.000
    19 C      -1.904263     0.462345     1.677944 C          1 UNL1 0.000
    20 C      -2.646733    -0.296428     0.767586 C          1 UNL1 0.000
    21 C      -4.044527    -0.264348     0.794472 C          1 UNL1 0.000
    22 C      -0.440898     0.409598     1.693947 C          1 UNL1 0.000
    23 C       0.301909     0.710784     0.617729 C          1 UNL1 0.000
    24 H      -9.573198     3.222949     3.421500 H          1 UNL1 0.000
    25 H      -8.392229     1.083544     3.232547 H          1 UNL1 0.000
    26 H      -5.526546     2.906802     0.573050 H          1 UNL1 0.000
    27 H      -6.694032     5.049497     0.785428 H          1 UNL1 0.000
    28 H      -8.484107     0.104542     0.409739 H          1 UNL1 0.000
    29 H      -9.743051    -1.993750     0.286624 H          1 UNL1 0.000
    30 H      -6.790816    -3.915934     2.769380 H          1 UNL1 0.000
    31 H      -5.545215    -1.811971     2.919966 H          1 UNL1 0.000
    32 H      -8.285450     6.447577     2.035619 H          1 UNL1 0.000
    33 H      -9.362489     5.736521     3.237411 H          1 UNL1 0.000
    34 H      -9.768585     5.619570     1.505866 H          1 UNL1 0.000
    35 H      -8.449492    -5.251682     1.333507 H          1 UNL1 0.000
    36 H      -9.812810    -4.409487     0.595702 H          1 UNL1 0.000
    37 H      -9.707110    -4.523285     2.366661 H          1 UNL1 0.000
    38 H      -4.473464     1.906012     3.380634 H          1 UNL1 0.000
    39 H      -2.018295     1.841697     3.339546 H          1 UNL1 0.000
    40 H      -2.145918    -0.927185     0.036885 H          1 UNL1 0.000
    41 H      -4.599806    -0.856796     0.070959 H          1 UNL1 0.000
    42 H       0.016815     0.134004     2.640585 H          1 UNL1 0.000
    43 H      -0.154519     1.036102    -0.313573 H          1 UNL1 0.000
    44 C       1.766171     0.656105     0.634166 C          1 UNL1 0.000
    45 C       2.446420    -0.506299     1.013676 C          1 UNL1 0.000
    46 C       3.843292    -0.547527     0.996728 C          1 UNL1 0.000
    47 C       4.580705     0.568838     0.587073 C          1 UNL1 0.000
    48 C       3.899585     1.733768     0.215446 C          1 UNL1 0.000
    49 C       2.502150     1.773059     0.227704 C          1 UNL1 0.000
    50 C       6.080151     0.537683     0.602532 C          1 UNL1 0.000
    51 H       1.894285    -1.392222     1.318359 H          1 UNL1 0.000
    52 H       4.350297    -1.460315     1.301100 H          1 UNL1 0.000
    53 H       4.452466     2.619687    -0.088645 H          1 UNL1 0.000
    54 H       1.994285     2.687428    -0.070073 H          1 UNL1 0.000
    55 H       6.452069     0.898418     1.566395 H          1 UNL1 0.000
    56 H       6.490939     1.165962    -0.194749 H          1 UNL1 0.000
    57 H       6.452529    -0.478993     0.438212 H          1 UNL1 0.000
@<TRIPOS>BOND
     1      1      2   2
     2      2      3   1
     3      3      4   2
     4      4      5   1
     5      5      6   2
     6      6      1   1
     7      4      7   1
     8      7      8   1
     9      8      9   2
    10      9     10   1
    11     10     11   2
    12     11     12   1
    13     12     13   2
    14     13      8   1
    15      1     14   1
    16     11     15   1
    17     16     17   2
    18     17     18   1
    19     18     19   2
    20     19     20   1
    21     20     21   2
    22     21     16   1
    23     19     22   1
    24     22     23   2
    25      7     16   1
    26      2     24   1
    27      3     25   1
    28      5     26   1
    29      6     27   1
    30      9     28   1
    31     10     29   1
    32     12     30   1
    33     13     31   1
    34     14     32   1
    35     14     33   1
    36     14     34   1
    37     15     35   1
    38     15     36   1
    39     15     37   1
    40     17     38   1
    41     18     39   1
    42     20     40   1
    43     21     41   1
    44     22     42   1
    45     23     43   1
    46     44     45   2
    47     45     46   1
    48     46     47   2
    49     47     48   1
    50     48     49   2
    51     49     44   1
    52     47     50   1
    53     45     51   1
    54     46     52   1
    55     48     53   1
    56     49     54   1
    57     50     55   1
    58     50     56   1
    59     50     57   1
    60     23     44   1
