# Produced with molli package
@<TRIPOS>MOLECULE
C_7_M
55 58 0 0 0
SMALL
USER_CHARGES

@<TRIPOS>ATOM
     1 C      -8.205274     4.350713     1.660989 C          1 UNL1 0.000
     2 C      -8.817519     3.201585     1.157641 C          1 UNL1 0.000
     3 C      -8.144095     1.971312     1.165625 C          1 UNL1 0.000
     4 C      -6.863208     1.835819     1.726176 C          1 UNL1 0.000
     5 C      -6.246775     3.017454     2.185380 C          1 UNL1 0.000
     6 C      -6.904148     4.253153     2.154868 C          1 UNL1 0.000
     7 N      -6.178244     0.560186     1.818862 N          1 UNL1 0.000
     8 C      -6.849732    -0.724115     1.894863 C          1 UNL1 0.000
     9 C      -8.166361    -0.863671     2.365631 C          1 UNL1 0.000
    10 C      -8.834591    -2.096355     2.331917 C          1 UNL1 0.000
    11 C      -8.184234    -3.246844     1.881854 C          1 UNL1 0.000
    12 C      -6.849065    -3.148724     1.492695 C          1 UNL1 0.000
    13 C      -6.195549    -1.909639     1.501739 C          1 UNL1 0.000
    14 C      -8.930788     5.661871     1.711084 C          1 UNL1 0.000
    15 C      -8.923786    -4.547286     1.782238 C          1 UNL1 0.000
    16 C      -4.740218     0.574516     1.760722 C          1 UNL1 0.000
    17 C      -3.976647     0.422887     2.924742 C          1 UNL1 0.000
    18 C      -2.578820     0.457892     2.861377 C          1 UNL1 0.000
    19 C      -1.915984     0.613154     1.634169 C          1 UNL1 0.000
    20 C      -2.687766     0.764346     0.473374 C          1 UNL1 0.000
    21 C      -4.085145     0.750650     0.535077 C          1 UNL1 0.000
    22 C      -0.442333     0.658726     1.626236 C          1 UNL1 0.000
    23 C       0.328362     0.387466     0.560988 C          1 UNL1 0.000
    24 H      -9.826511     3.247759     0.753938 H          1 UNL1 0.000
    25 H      -8.646085     1.118921     0.716286 H          1 UNL1 0.000
    26 H      -5.242540     2.994703     2.600327 H          1 UNL1 0.000
    27 H      -6.392528     5.134474     2.535250 H          1 UNL1 0.000
    28 H      -8.706354    -0.010989     2.767639 H          1 UNL1 0.000
    29 H      -9.872063    -2.145415     2.655677 H          1 UNL1 0.000
    30 H      -6.303671    -4.029204     1.160727 H          1 UNL1 0.000
    31 H      -5.161839    -1.891267     1.166555 H          1 UNL1 0.000
    32 H      -8.316374     6.456842     1.276417 H          1 UNL1 0.000
    33 H      -9.164598     5.917823     2.749908 H          1 UNL1 0.000
    34 H      -9.870402     5.623037     1.150645 H          1 UNL1 0.000
    35 H      -8.243645    -5.380423     1.575766 H          1 UNL1 0.000
    36 H      -9.654749    -4.497785     0.968269 H          1 UNL1 0.000
    37 H      -9.444015    -4.767184     2.719593 H          1 UNL1 0.000
    38 H      -4.473500     0.300370     3.883903 H          1 UNL1 0.000
    39 H      -2.013878     0.357444     3.785671 H          1 UNL1 0.000
    40 H      -2.220308     0.905415    -0.497102 H          1 UNL1 0.000
    41 H      -4.667948     0.864701    -0.375668 H          1 UNL1 0.000
    42 H       0.026057     0.910788     2.576218 H          1 UNL1 0.000
    43 H      -0.081910     0.095956    -0.400720 H          1 UNL1 0.000
    44 C       1.789798     0.425039     0.628917 C          1 UNL1 0.000
    45 C       2.507504    -0.772396     0.717291 C          1 UNL1 0.000
    46 C       3.904956    -0.756418     0.746976 C          1 UNL1 0.000
    47 C       4.593828     0.459132     0.686146 C          1 UNL1 0.000
    48 C       3.878118     1.658620     0.607344 C          1 UNL1 0.000
    49 C       2.479589     1.641348     0.581448 C          1 UNL1 0.000
    50 C       6.028828     0.473425     0.695823 C          1 UNL1 0.000
    51 N       7.187557     0.482161     0.699153 N          1 UNL1 0.000
    52 H       1.982412    -1.724552     0.760109 H          1 UNL1 0.000
    53 H       4.447762    -1.697642     0.811548 H          1 UNL1 0.000
    54 H       4.401453     2.611888     0.558328 H          1 UNL1 0.000
    55 H       1.934188     2.580301     0.510525 H          1 UNL1 0.000
@<TRIPOS>BOND
     1      1      2   2
     2      2      3   1
     3      3      4   2
     4      4      5   1
     5      5      6   2
     6      6      1   1
     7      4      7   1
     8      7      8   1
     9      8      9   2
    10      9     10   1
    11     10     11   2
    12     11     12   1
    13     12     13   2
    14     13      8   1
    15      1     14   1
    16     11     15   1
    17     16     17   2
    18     17     18   1
    19     18     19   2
    20     19     20   1
    21     20     21   2
    22     21     16   1
    23     19     22   1
    24     22     23   2
    25      7     16   1
    26      2     24   1
    27      3     25   1
    28      5     26   1
    29      6     27   1
    30      9     28   1
    31     10     29   1
    32     12     30   1
    33     13     31   1
    34     14     32   1
    35     14     33   1
    36     14     34   1
    37     15     35   1
    38     15     36   1
    39     15     37   1
    40     17     38   1
    41     18     39   1
    42     20     40   1
    43     21     41   1
    44     22     42   1
    45     23     43   1
    46     44     45   2
    47     45     46   1
    48     46     47   2
    49     47     48   1
    50     48     49   2
    51     49     44   1
    52     50     51   3
    53     47     50   1
    54     45     52   1
    55     46     53   1
    56     48     54   1
    57     49     55   1
    58     23     44   1
