# Produced with molli package
@<TRIPOS>MOLECULE
C_7_L
58 62 0 0 0
SMALL
USER_CHARGES

@<TRIPOS>ATOM
     1 C      -8.221249     4.236189     1.669907 C          1 UNL1 0.000
     2 C      -8.762798     3.080908     1.099650 C          1 UNL1 0.000
     3 C      -8.070153     1.864990     1.159671 C          1 UNL1 0.000
     4 C      -6.824598     1.767112     1.801113 C          1 UNL1 0.000
     5 C      -6.287237     2.942508     2.358051 C          1 UNL1 0.000
     6 C      -6.974169     4.158987     2.294634 C          1 UNL1 0.000
     7 N      -6.098336     0.519940     1.872515 N          1 UNL1 0.000
     8 C      -6.758866    -0.762095     1.962214 C          1 UNL1 0.000
     9 C      -7.975022    -0.921310     2.646647 C          1 UNL1 0.000
    10 C      -8.619847    -2.163341     2.702535 C          1 UNL1 0.000
    11 C      -8.058299    -3.285591     2.085958 C          1 UNL1 0.000
    12 C      -6.833672    -3.150792     1.429422 C          1 UNL1 0.000
    13 C      -6.195057    -1.907422     1.369489 C          1 UNL1 0.000
    14 C      -8.948766     5.546186     1.612896 C          1 UNL1 0.000
    15 C      -8.759093    -4.609991     2.145975 C          1 UNL1 0.000
    16 C      -4.662051     0.556976     1.798064 C          1 UNL1 0.000
    17 C      -3.879334     0.065464     2.851525 C          1 UNL1 0.000
    18 C      -2.483228     0.107886     2.776854 C          1 UNL1 0.000
    19 C      -1.841948     0.612298     1.637712 C          1 UNL1 0.000
    20 C      -2.625911     1.111818     0.589679 C          1 UNL1 0.000
    21 C      -4.021639     1.088351     0.669936 C          1 UNL1 0.000
    22 C      -0.371613     0.644303     1.606722 C          1 UNL1 0.000
    23 C       0.361106     0.519249     0.491569 C          1 UNL1 0.000
    24 H      -9.726826     3.114199     0.597309 H          1 UNL1 0.000
    25 H      -8.510141     0.995002     0.678510 H          1 UNL1 0.000
    26 H      -5.326028     2.920114     2.866258 H          1 UNL1 0.000
    27 H      -6.526382     5.044307     2.740525 H          1 UNL1 0.000
    28 H      -8.431851    -0.077456     3.157845 H          1 UNL1 0.000
    29 H      -9.565607    -2.246189     3.233454 H          1 UNL1 0.000
    30 H      -6.365356    -4.007175     0.949759 H          1 UNL1 0.000
    31 H      -5.253935    -1.841057     0.828687 H          1 UNL1 0.000
    32 H      -8.360009     6.280326     1.053514 H          1 UNL1 0.000
    33 H      -9.125700     5.923522     2.625413 H          1 UNL1 0.000
    34 H      -9.920481     5.445579     1.118695 H          1 UNL1 0.000
    35 H      -8.237732    -5.367015     1.550480 H          1 UNL1 0.000
    36 H      -9.775123    -4.518377     1.748392 H          1 UNL1 0.000
    37 H      -8.806453    -4.965730     3.179855 H          1 UNL1 0.000
    38 H      -4.358882    -0.332418     3.742466 H          1 UNL1 0.000
    39 H      -1.902479    -0.266815     3.616893 H          1 UNL1 0.000
    40 H      -2.165206     1.532589    -0.300164 H          1 UNL1 0.000
    41 H      -4.613053     1.469615    -0.159008 H          1 UNL1 0.000
    42 H       0.121530     0.751057     2.571899 H          1 UNL1 0.000
    43 H      -0.079683     0.378046    -0.490972 H          1 UNL1 0.000
    44 C       1.824520     0.530339     0.532473 C          1 UNL1 0.000
    45 C       2.522646    -0.676789     0.622601 C          1 UNL1 0.000
    46 C       3.921205    -0.705689     0.654688 C          1 UNL1 0.000
    47 C       4.594267     0.519304     0.592217 C          1 UNL1 0.000
    48 C       3.928132     1.742073     0.507473 C          1 UNL1 0.000
    49 C       2.519098     1.748191     0.480967 C          1 UNL1 0.000
    50 N       5.943717     0.792934     0.597381 N          1 UNL1 0.000
    51 C       6.153281     2.144183     0.517747 C          1 UNL1 0.000
    52 C       4.922785     2.758137     0.462909 C          1 UNL1 0.000
    53 H       1.976405    -1.617069     0.667726 H          1 UNL1 0.000
    54 H       4.455941    -1.647134     0.722473 H          1 UNL1 0.000
    55 H       1.982062     2.689918     0.414590 H          1 UNL1 0.000
    56 H       6.669651     0.091953     0.649597 H          1 UNL1 0.000
    57 H       7.155653     2.550392     0.506629 H          1 UNL1 0.000
    58 H       4.752416     3.824497     0.394871 H          1 UNL1 0.000
@<TRIPOS>BOND
     1      1      2   2
     2      2      3   1
     3      3      4   2
     4      4      5   1
     5      5      6   2
     6      6      1   1
     7      4      7   1
     8      7      8   1
     9      8      9   2
    10      9     10   1
    11     10     11   2
    12     11     12   1
    13     12     13   2
    14     13      8   1
    15      1     14   1
    16     11     15   1
    17     16     17   2
    18     17     18   1
    19     18     19   2
    20     19     20   1
    21     20     21   2
    22     21     16   1
    23     19     22   1
    24     22     23   2
    25      7     16   1
    26      2     24   1
    27      3     25   1
    28      5     26   1
    29      6     27   1
    30      9     28   1
    31     10     29   1
    32     12     30   1
    33     13     31   1
    34     14     32   1
    35     14     33   1
    36     14     34   1
    37     15     35   1
    38     15     36   1
    39     15     37   1
    40     17     38   1
    41     18     39   1
    42     20     40   1
    43     21     41   1
    44     22     42   1
    45     23     43   1
    46     44     45   2
    47     45     46   1
    48     46     47   2
    49     47     48   1
    50     48     49   2
    51     49     44   1
    52     47     50   1
    53     50     51   1
    54     51     52   2
    55     52     48   1
    56     45     53   1
    57     46     54   1
    58     49     55   1
    59     50     56   1
    60     51     57   1
    61     52     58   1
    62     23     44   1
