# Produced with molli package
@<TRIPOS>MOLECULE
C_7_K
56 59 0 0 0
SMALL
USER_CHARGES

@<TRIPOS>ATOM
     1 C      -8.173037     4.266877     1.671729 C          1 UNL1 0.000
     2 C      -8.748702     3.124300     1.110324 C          1 UNL1 0.000
     3 C      -8.074098     1.896871     1.143616 C          1 UNL1 0.000
     4 C      -6.814641     1.771617     1.752790 C          1 UNL1 0.000
     5 C      -6.235086     2.940064     2.282122 C          1 UNL1 0.000
     6 C      -6.902903     4.168657     2.243935 C          1 UNL1 0.000
     7 N      -6.118857     0.506152     1.820330 N          1 UNL1 0.000
     8 C      -6.797985    -0.765440     1.932812 C          1 UNL1 0.000
     9 C      -8.041697    -0.889384     2.574613 C          1 UNL1 0.000
    10 C      -8.709196    -2.119188     2.641686 C          1 UNL1 0.000
    11 C      -8.142005    -3.268055     2.083891 C          1 UNL1 0.000
    12 C      -6.883704    -3.173858     1.487518 C          1 UNL1 0.000
    13 C      -6.224426    -1.941381     1.412834 C          1 UNL1 0.000
    14 C      -8.884132     5.586873     1.650487 C          1 UNL1 0.000
    15 C      -8.862120    -4.581088     2.160006 C          1 UNL1 0.000
    16 C      -4.684433     0.517390     1.738623 C          1 UNL1 0.000
    17 C      -3.904322     0.217431     2.861885 C          1 UNL1 0.000
    18 C      -2.508226     0.249714     2.781063 C          1 UNL1 0.000
    19 C      -1.863287     0.550364     1.571883 C          1 UNL1 0.000
    20 C      -2.650201     0.848759     0.451005 C          1 UNL1 0.000
    21 C      -4.046324     0.838904     0.533998 C          1 UNL1 0.000
    22 C      -0.390655     0.586031     1.549571 C          1 UNL1 0.000
    23 C       0.367972     0.461480     0.449158 C          1 UNL1 0.000
    24 H      -9.727964     3.175306     0.639860 H          1 UNL1 0.000
    25 H      -8.544239     1.037882     0.671356 H          1 UNL1 0.000
    26 H      -5.256641     2.905458     2.754639 H          1 UNL1 0.000
    27 H      -6.423563     5.045877     2.672755 H          1 UNL1 0.000
    28 H      -8.507452    -0.026861     3.044659 H          1 UNL1 0.000
    29 H      -9.677542    -2.170263     3.134605 H          1 UNL1 0.000
    30 H      -6.404903    -4.054220     1.064902 H          1 UNL1 0.000
    31 H      -5.256889    -1.913020     0.917938 H          1 UNL1 0.000
    32 H      -8.348718     6.293609     1.008774 H          1 UNL1 0.000
    33 H      -8.946979     5.997991     2.663638 H          1 UNL1 0.000
    34 H      -9.905906     5.486618     1.270262 H          1 UNL1 0.000
    35 H      -8.391356    -5.332470     1.517050 H          1 UNL1 0.000
    36 H      -9.898154    -4.466522     1.824363 H          1 UNL1 0.000
    37 H      -8.855643    -4.955774     3.188057 H          1 UNL1 0.000
    38 H      -4.386591    -0.017015     3.807630 H          1 UNL1 0.000
    39 H      -1.930869     0.032680     3.677186 H          1 UNL1 0.000
    40 H      -2.196410     1.103525    -0.502531 H          1 UNL1 0.000
    41 H      -4.641053     1.067769    -0.346989 H          1 UNL1 0.000
    42 H       0.089746     0.698731     2.520254 H          1 UNL1 0.000
    43 H      -0.051079     0.308383    -0.540247 H          1 UNL1 0.000
    44 C       1.829507     0.479701     0.519012 C          1 UNL1 0.000
    45 C       2.522841     1.677826     0.734217 C          1 UNL1 0.000
    46 C       3.919901     1.684829     0.784502 C          1 UNL1 0.000
    47 C       4.620589     0.482967     0.619488 C          1 UNL1 0.000
    48 C       3.936130    -0.720728     0.408660 C          1 UNL1 0.000
    49 C       2.539870    -0.716334     0.358425 C          1 UNL1 0.000
    50 N       6.086569     0.484253     0.663822 N          1 UNL1 0.000
    51 O       6.648486     1.500489     1.097353 O          1 UNL1 0.000
    52 O       6.675418    -0.530153     0.264234 O          1 UNL1 0.000
    53 H       1.978612     2.612775     0.855441 H          1 UNL1 0.000
    54 H       4.441490     2.626128     0.945419 H          1 UNL1 0.000
    55 H       4.468912    -1.661113     0.284310 H          1 UNL1 0.000
    56 H       2.007751    -1.652197     0.197243 H          1 UNL1 0.000
@<TRIPOS>BOND
     1      1      2   2
     2      2      3   1
     3      3      4   2
     4      4      5   1
     5      5      6   2
     6      6      1   1
     7      4      7   1
     8      7      8   1
     9      8      9   2
    10      9     10   1
    11     10     11   2
    12     11     12   1
    13     12     13   2
    14     13      8   1
    15      1     14   1
    16     11     15   1
    17     16     17   2
    18     17     18   1
    19     18     19   2
    20     19     20   1
    21     20     21   2
    22     21     16   1
    23     19     22   1
    24     22     23   2
    25      7     16   1
    26      2     24   1
    27      3     25   1
    28      5     26   1
    29      6     27   1
    30      9     28   1
    31     10     29   1
    32     12     30   1
    33     13     31   1
    34     14     32   1
    35     14     33   1
    36     14     34   1
    37     15     35   1
    38     15     36   1
    39     15     37   1
    40     17     38   1
    41     18     39   1
    42     20     40   1
    43     21     41   1
    44     22     42   1
    45     23     43   1
    46     44     45   2
    47     45     46   1
    48     46     47   2
    49     47     48   1
    50     48     49   2
    51     49     44   1
    52     50     51   2
    53     50     52   1
    54     47     50   1
    55     45     53   1
    56     46     54   1
    57     48     55   1
    58     49     56   1
    59     23     44   1
