# Produced with molli package
@<TRIPOS>MOLECULE
C_7_O
53 56 0 0 0
SMALL
USER_CHARGES

@<TRIPOS>ATOM
     1 C      -8.106483     4.183796     2.082659 C          1 UNL1 0.000
     2 C      -8.625849     3.050195     2.715386 C          1 UNL1 0.000
     3 C      -7.959774     1.821736     2.634528 C          1 UNL1 0.000
     4 C      -6.762244     1.689937     1.912402 C          1 UNL1 0.000
     5 C      -6.239962     2.844419     1.301882 C          1 UNL1 0.000
     6 C      -6.902631     4.073862     1.383156 C          1 UNL1 0.000
     7 N      -6.082742     0.421207     1.799697 N          1 UNL1 0.000
     8 C      -6.799892    -0.830004     1.717318 C          1 UNL1 0.000
     9 C      -8.035217    -0.930053     1.056443 C          1 UNL1 0.000
    10 C      -8.723251    -2.147422     0.985277 C          1 UNL1 0.000
    11 C      -8.190264    -3.299634     1.569872 C          1 UNL1 0.000
    12 C      -6.952623    -3.219528     2.213430 C          1 UNL1 0.000
    13 C      -6.268436    -2.002075     2.285413 C          1 UNL1 0.000
    14 C      -8.834089     5.492375     2.166316 C          1 UNL1 0.000
    15 C      -8.910651    -4.612615     1.494374 C          1 UNL1 0.000
    16 C      -4.644939     0.399839     1.744061 C          1 UNL1 0.000
    17 C      -3.881442     0.931905     2.794136 C          1 UNL1 0.000
    18 C      -2.485069     0.878504     2.753757 C          1 UNL1 0.000
    19 C      -1.831487     0.321283     1.650186 C          1 UNL1 0.000
    20 C      -2.587474    -0.199072     0.594028 C          1 UNL1 0.000
    21 C      -3.983292    -0.168354     0.644570 C          1 UNL1 0.000
    22 C      -0.369151     0.253423     1.634214 C          1 UNL1 0.000
    23 C       0.370096     0.851142     0.687131 C          1 UNL1 0.000
    24 H      -9.554740     3.113570     3.277762 H          1 UNL1 0.000
    25 H      -8.382547     0.966067     3.155540 H          1 UNL1 0.000
    26 H      -5.316351     2.793080     0.730227 H          1 UNL1 0.000
    27 H      -6.470123     4.939477     0.886845 H          1 UNL1 0.000
    28 H      -8.468770    -0.059732     0.569861 H          1 UNL1 0.000
    29 H      -9.677369    -2.184232     0.464694 H          1 UNL1 0.000
    30 H      -6.510552    -4.103281     2.668065 H          1 UNL1 0.000
    31 H      -5.315971    -1.975349     2.809744 H          1 UNL1 0.000
    32 H      -8.331428     6.269434     1.580827 H          1 UNL1 0.000
    33 H      -8.883602     5.831346     3.205786 H          1 UNL1 0.000
    34 H      -9.850129     5.384807     1.772759 H          1 UNL1 0.000
    35 H      -8.349817    -5.313744     0.868237 H          1 UNL1 0.000
    36 H      -9.911326    -4.497382     1.065367 H          1 UNL1 0.000
    37 H      -9.026674    -5.038914     2.496313 H          1 UNL1 0.000
    38 H      -4.376923     1.362177     3.660972 H          1 UNL1 0.000
    39 H      -1.912957     1.275259     3.589259 H          1 UNL1 0.000
    40 H      -2.097163    -0.646955    -0.266935 H          1 UNL1 0.000
    41 H      -4.558783    -0.579104    -0.181375 H          1 UNL1 0.000
    42 H       0.093591    -0.303651     2.446034 H          1 UNL1 0.000
    43 H      -0.111381     1.426195    -0.098572 H          1 UNL1 0.000
    44 C       1.838099     0.788478     0.638204 C          1 UNL1 0.000
    45 N       2.457254    -0.052603     1.500436 N          1 UNL1 0.000
    46 C       3.804789    -0.125098     1.439659 C          1 UNL1 0.000
    47 C       4.577327     0.609673     0.557401 C          1 UNL1 0.000
    48 C       3.929075     1.471469    -0.317960 C          1 UNL1 0.000
    49 C       2.539141     1.562447    -0.281855 C          1 UNL1 0.000
    50 H       4.261372    -0.815300     2.143189 H          1 UNL1 0.000
    51 H       5.656947     0.511934     0.552897 H          1 UNL1 0.000
    52 H       4.498945     2.067616    -1.024746 H          1 UNL1 0.000
    53 H       2.022215     2.231319    -0.961757 H          1 UNL1 0.000
@<TRIPOS>BOND
     1      1      2   2
     2      2      3   1
     3      3      4   2
     4      4      5   1
     5      5      6   2
     6      6      1   1
     7      4      7   1
     8      7      8   1
     9      8      9   2
    10      9     10   1
    11     10     11   2
    12     11     12   1
    13     12     13   2
    14     13      8   1
    15      1     14   1
    16     11     15   1
    17     16     17   2
    18     17     18   1
    19     18     19   2
    20     19     20   1
    21     20     21   2
    22     21     16   1
    23     19     22   1
    24     22     23   2
    25      7     16   1
    26      2     24   1
    27      3     25   1
    28      5     26   1
    29      6     27   1
    30      9     28   1
    31     10     29   1
    32     12     30   1
    33     13     31   1
    34     14     32   1
    35     14     33   1
    36     14     34   1
    37     15     35   1
    38     15     36   1
    39     15     37   1
    40     17     38   1
    41     18     39   1
    42     20     40   1
    43     21     41   1
    44     22     42   1
    45     23     43   1
    46     44     45   2
    47     45     46   1
    48     46     47   2
    49     47     48   1
    50     48     49   2
    51     49     44   1
    52     46     50   1
    53     47     51   1
    54     48     52   1
    55     49     53   1
    56     23     44   1
