# Produced with molli package
@<TRIPOS>MOLECULE
C_7_P
58 61 0 0 0
SMALL
USER_CHARGES

@<TRIPOS>ATOM
     1 C      -8.128560     4.202209     2.145070 C          1 UNL1 0.000
     2 C      -8.681232     3.045118     2.701283 C          1 UNL1 0.000
     3 C      -8.007288     1.820850     2.614427 C          1 UNL1 0.000
     4 C      -6.770156     1.713263     1.956967 C          1 UNL1 0.000
     5 C      -6.215204     2.893095     1.427742 C          1 UNL1 0.000
     6 C      -6.882983     4.119630     1.519629 C          1 UNL1 0.000
     7 N      -6.085478     0.447075     1.829553 N          1 UNL1 0.000
     8 C      -6.791934    -0.808720     1.730344 C          1 UNL1 0.000
     9 C      -8.014036    -0.917937     1.047196 C          1 UNL1 0.000
    10 C      -8.695944    -2.138406     0.972136 C          1 UNL1 0.000
    11 C      -8.161998    -3.287866     1.561571 C          1 UNL1 0.000
    12 C      -6.940150    -3.196936     2.233193 C          1 UNL1 0.000
    13 C      -6.262821    -1.975998     2.310287 C          1 UNL1 0.000
    14 C      -8.862999     5.506494     2.234908 C          1 UNL1 0.000
    15 C      -8.899422    -4.592889     1.518642 C          1 UNL1 0.000
    16 C      -4.648934     0.429598     1.761336 C          1 UNL1 0.000
    17 C      -3.876488     0.893178     2.835078 C          1 UNL1 0.000
    18 C      -2.479859     0.860916     2.769147 C          1 UNL1 0.000
    19 C      -1.829800     0.397002     1.618395 C          1 UNL1 0.000
    20 C      -2.601594    -0.071321     0.547723 C          1 UNL1 0.000
    21 C      -3.997758    -0.060876     0.620355 C          1 UNL1 0.000
    22 C      -0.361062     0.370031     1.593390 C          1 UNL1 0.000
    23 C       0.368735     0.666667     0.508293 C          1 UNL1 0.000
    24 H      -9.643077     3.085923     3.207627 H          1 UNL1 0.000
    25 H      -8.460447     0.948632     3.079215 H          1 UNL1 0.000
    26 H      -5.258684     2.868854     0.911116 H          1 UNL1 0.000
    27 H      -6.421081     5.004595     1.087998 H          1 UNL1 0.000
    28 H      -8.444479    -0.051119     0.551679 H          1 UNL1 0.000
    29 H      -9.646303    -2.180341     0.445005 H          1 UNL1 0.000
    30 H      -6.506264    -4.074212     2.707731 H          1 UNL1 0.000
    31 H      -5.321253    -1.940774     2.853205 H          1 UNL1 0.000
    32 H      -8.342541     6.298742     1.686472 H          1 UNL1 0.000
    33 H      -8.951417     5.819097     3.279980 H          1 UNL1 0.000
    34 H      -9.863821     5.406811     1.802032 H          1 UNL1 0.000
    35 H      -8.218519    -5.408481     1.253602 H          1 UNL1 0.000
    36 H      -9.698569    -4.575657     0.770489 H          1 UNL1 0.000
    37 H      -9.345805    -4.802410     2.495913 H          1 UNL1 0.000
    38 H      -4.364549     1.259096     3.735054 H          1 UNL1 0.000
    39 H      -1.905361     1.211556     3.623691 H          1 UNL1 0.000
    40 H      -2.128631    -0.457618    -0.351556 H          1 UNL1 0.000
    41 H      -4.581774    -0.420476    -0.223378 H          1 UNL1 0.000
    42 H       0.127082     0.126472     2.535334 H          1 UNL1 0.000
    43 H      -0.081717     0.959058    -0.435967 H          1 UNL1 0.000
    44 C       1.831234     0.667117     0.545784 C          1 UNL1 0.000
    45 C       2.549854    -0.534501     0.531114 C          1 UNL1 0.000
    46 C       3.946590    -0.517428     0.558728 C          1 UNL1 0.000
    47 C       4.619691     0.702572     0.592754 C          1 UNL1 0.000
    48 C       3.913954     1.901852     0.641122 C          1 UNL1 0.000
    49 C       2.518804     1.884673     0.605732 C          1 UNL1 0.000
    50 O       5.985561     0.754020     0.649673 O          1 UNL1 0.000
    51 C       6.549550     0.436253    -0.622816 C          1 UNL1 0.000
    52 H       2.027105    -1.487516     0.500051 H          1 UNL1 0.000
    53 H       4.500334    -1.451296     0.564381 H          1 UNL1 0.000
    54 H       4.447533     2.845698     0.701206 H          1 UNL1 0.000
    55 H       1.972411     2.824308     0.635267 H          1 UNL1 0.000
    56 H       7.621535     0.650500    -0.576302 H          1 UNL1 0.000
    57 H       6.116357     1.053928    -1.418130 H          1 UNL1 0.000
    58 H       6.426460    -0.626859    -0.854074 H          1 UNL1 0.000
@<TRIPOS>BOND
     1      1      2   2
     2      2      3   1
     3      3      4   2
     4      4      5   1
     5      5      6   2
     6      6      1   1
     7      4      7   1
     8      7      8   1
     9      8      9   2
    10      9     10   1
    11     10     11   2
    12     11     12   1
    13     12     13   2
    14     13      8   1
    15      1     14   1
    16     11     15   1
    17     16     17   2
    18     17     18   1
    19     18     19   2
    20     19     20   1
    21     20     21   2
    22     21     16   1
    23     19     22   1
    24     22     23   2
    25      7     16   1
    26      2     24   1
    27      3     25   1
    28      5     26   1
    29      6     27   1
    30      9     28   1
    31     10     29   1
    32     12     30   1
    33     13     31   1
    34     14     32   1
    35     14     33   1
    36     14     34   1
    37     15     35   1
    38     15     36   1
    39     15     37   1
    40     17     38   1
    41     18     39   1
    42     20     40   1
    43     21     41   1
    44     22     42   1
    45     23     43   1
    46     44     45   2
    47     45     46   1
    48     46     47   2
    49     47     48   1
    50     48     49   2
    51     49     44   1
    52     50     51   1
    53     47     50   1
    54     45     52   1
    55     46     53   1
    56     48     54   1
    57     49     55   1
    58     51     56   1
    59     51     57   1
    60     51     58   1
    61     23     44   1
