# Produced with molli package
@<TRIPOS>MOLECULE
C_7_S
59 62 0 0 0
SMALL
USER_CHARGES

@<TRIPOS>ATOM
     1 C      -8.143974     4.291846     1.878026 C          1 UNL1 0.000
     2 C      -8.766175     3.154797     2.399321 C          1 UNL1 0.000
     3 C      -8.107804     1.916707     2.402777 C          1 UNL1 0.000
     4 C      -6.824646     1.765395     1.851924 C          1 UNL1 0.000
     5 C      -6.198637     2.934627     1.373719 C          1 UNL1 0.000
     6 C      -6.842976     4.177331     1.389516 C          1 UNL1 0.000
     7 N      -6.149963     0.484089     1.789722 N          1 UNL1 0.000
     8 C      -6.834399    -0.792017     1.735188 C          1 UNL1 0.000
     9 C      -8.121229    -0.937059     1.190857 C          1 UNL1 0.000
    10 C      -8.790483    -2.169425     1.207390 C          1 UNL1 0.000
    11 C      -8.171158    -3.308749     1.725705 C          1 UNL1 0.000
    12 C      -6.870666    -3.197771     2.219131 C          1 UNL1 0.000
    13 C      -6.214915    -1.961116     2.220717 C          1 UNL1 0.000
    14 C      -8.857524     5.610458     1.868633 C          1 UNL1 0.000
    15 C      -8.895336    -4.619452     1.804057 C          1 UNL1 0.000
    16 C      -4.711926     0.479064     1.752191 C          1 UNL1 0.000
    17 C      -3.966100     0.769353     2.901141 C          1 UNL1 0.000
    18 C      -2.566886     0.767361     2.855445 C          1 UNL1 0.000
    19 C      -1.882265     0.500065     1.659240 C          1 UNL1 0.000
    20 C      -2.639517     0.213549     0.513621 C          1 UNL1 0.000
    21 C      -4.037513     0.193188     0.559730 C          1 UNL1 0.000
    22 C      -0.405445     0.524277     1.670383 C          1 UNL1 0.000
    23 C       0.384862     0.373591     0.595553 C          1 UNL1 0.000
    24 H      -9.771675     3.221220     2.809157 H          1 UNL1 0.000
    25 H      -8.619570     1.071687     2.855281 H          1 UNL1 0.000
    26 H      -5.194379     2.897144     0.959034 H          1 UNL1 0.000
    27 H      -6.317328     5.048040     1.004198 H          1 UNL1 0.000
    28 H      -8.628811    -0.090281     0.736694 H          1 UNL1 0.000
    29 H      -9.801709    -2.225978     0.810583 H          1 UNL1 0.000
    30 H      -6.357848    -4.069150     2.620214 H          1 UNL1 0.000
    31 H      -5.210389    -1.924803     2.634710 H          1 UNL1 0.000
    32 H      -8.291383     6.367839     1.315768 H          1 UNL1 0.000
    33 H      -9.000631     5.970960     2.891747 H          1 UNL1 0.000
    34 H      -9.832807     5.509327     1.381096 H          1 UNL1 0.000
    35 H      -8.248890    -5.436996     1.468493 H          1 UNL1 0.000
    36 H      -9.787643    -4.622566     1.169854 H          1 UNL1 0.000
    37 H      -9.205952    -4.811322     2.836390 H          1 UNL1 0.000
    38 H      -4.477510     0.981655     3.836795 H          1 UNL1 0.000
    39 H      -2.019686     0.982028     3.770940 H          1 UNL1 0.000
    40 H      -2.165537     0.001451    -0.439649 H          1 UNL1 0.000
    41 H      -4.604480    -0.023030    -0.342463 H          1 UNL1 0.000
    42 H       0.054574     0.677725     2.645568 H          1 UNL1 0.000
    43 H      -0.002928     0.215379    -0.404789 H          1 UNL1 0.000
    44 C       1.845464     0.403311     0.679918 C          1 UNL1 0.000
    45 C       2.531826     1.616522     0.760799 C          1 UNL1 0.000
    46 C       3.930290     1.631387     0.770777 C          1 UNL1 0.000
    47 C       4.660326     0.434914     0.703719 C          1 UNL1 0.000
    48 C       3.968296    -0.779262     0.632003 C          1 UNL1 0.000
    49 C       2.567768    -0.792560     0.625022 C          1 UNL1 0.000
    50 C       6.153532     0.523751     0.689612 C          1 UNL1 0.000
    51 C       6.988384    -0.731538     0.715742 C          1 UNL1 0.000
    52 O       6.693540     1.626274     0.624961 O          1 UNL1 0.000
    53 H       1.988063     2.558125     0.795088 H          1 UNL1 0.000
    54 H       4.448696     2.587998     0.817627 H          1 UNL1 0.000
    55 H       4.483175    -1.731978     0.563697 H          1 UNL1 0.000
    56 H       2.043191    -1.744192     0.563253 H          1 UNL1 0.000
    57 H       7.233212    -1.026746    -0.307700 H          1 UNL1 0.000
    58 H       6.497291    -1.552915     1.238736 H          1 UNL1 0.000
    59 H       7.913508    -0.522775     1.262784 H          1 UNL1 0.000
@<TRIPOS>BOND
     1      1      2   2
     2      2      3   1
     3      3      4   2
     4      4      5   1
     5      5      6   2
     6      6      1   1
     7      4      7   1
     8      7      8   1
     9      8      9   2
    10      9     10   1
    11     10     11   2
    12     11     12   1
    13     12     13   2
    14     13      8   1
    15      1     14   1
    16     11     15   1
    17     16     17   2
    18     17     18   1
    19     18     19   2
    20     19     20   1
    21     20     21   2
    22     21     16   1
    23     19     22   1
    24     22     23   2
    25      7     16   1
    26      2     24   1
    27      3     25   1
    28      5     26   1
    29      6     27   1
    30      9     28   1
    31     10     29   1
    32     12     30   1
    33     13     31   1
    34     14     32   1
    35     14     33   1
    36     14     34   1
    37     15     35   1
    38     15     36   1
    39     15     37   1
    40     17     38   1
    41     18     39   1
    42     20     40   1
    43     21     41   1
    44     22     42   1
    45     23     43   1
    46     44     45   2
    47     45     46   1
    48     46     47   2
    49     47     48   1
    50     48     49   2
    51     49     44   1
    52     47     50   1
    53     50     51   1
    54     50     52   2
    55     45     53   1
    56     46     54   1
    57     48     55   1
    58     49     56   1
    59     51     57   1
    60     51     58   1
    61     51     59   1
    62     23     44   1
