# Produced with molli package
@<TRIPOS>MOLECULE
C_7_N
51 54 0 0 0
SMALL
USER_CHARGES

@<TRIPOS>ATOM
     1 C      -8.209520     4.228199     2.102171 C          1 UNL1 0.000
     2 C      -8.681554     3.096630     2.774212 C          1 UNL1 0.000
     3 C      -8.014607     1.872470     2.659156 C          1 UNL1 0.000
     4 C      -6.856759     1.747119     1.873002 C          1 UNL1 0.000
     5 C      -6.384974     2.895310     1.214065 C          1 UNL1 0.000
     6 C      -7.050372     4.120771     1.328762 C          1 UNL1 0.000
     7 N      -6.170783     0.482877     1.747771 N          1 UNL1 0.000
     8 C      -6.914200    -0.753989     1.687131 C          1 UNL1 0.000
     9 C      -8.105780    -0.851675     0.949886 C          1 UNL1 0.000
    10 C      -8.822061    -2.052263     0.891489 C          1 UNL1 0.000
    11 C      -8.364352    -3.185113     1.571001 C          1 UNL1 0.000
    12 C      -7.176600    -3.101645     2.303803 C          1 UNL1 0.000
    13 C      -6.461658    -1.901658     2.360786 C          1 UNL1 0.000
    14 C      -8.922325     5.539863     2.245969 C          1 UNL1 0.000
    15 C      -9.117526    -4.480650     1.512710 C          1 UNL1 0.000
    16 C      -4.729244     0.444373     1.708089 C          1 UNL1 0.000
    17 C      -3.960208     1.202830     2.606630 C          1 UNL1 0.000
    18 C      -2.563315     1.130735     2.593384 C          1 UNL1 0.000
    19 C      -1.910542     0.305946     1.674059 C          1 UNL1 0.000
    20 C      -2.661826    -0.437393     0.760488 C          1 UNL1 0.000
    21 C      -4.058009    -0.371633     0.781084 C          1 UNL1 0.000
    22 C      -0.450771     0.211117     1.680824 C          1 UNL1 0.000
    23 C       0.306873     0.879562     0.797667 C          1 UNL1 0.000
    24 H      -9.572021     3.158659     3.395789 H          1 UNL1 0.000
    25 H      -8.399231     1.015808     3.207699 H          1 UNL1 0.000
    26 H      -5.499429     2.840182     0.585360 H          1 UNL1 0.000
    27 H      -6.655941     4.986880     0.802372 H          1 UNL1 0.000
    28 H      -8.477637     0.007476     0.396468 H          1 UNL1 0.000
    29 H      -9.738282    -2.091948     0.306936 H          1 UNL1 0.000
    30 H      -6.799420    -3.969678     2.839833 H          1 UNL1 0.000
    31 H      -5.551449    -1.864373     2.954699 H          1 UNL1 0.000
    32 H      -8.566116     6.270898     1.512647 H          1 UNL1 0.000
    33 H      -8.757255     5.948954     3.247589 H          1 UNL1 0.000
    34 H      -9.997322     5.409050     2.083684 H          1 UNL1 0.000
    35 H      -8.514332    -5.244068     1.011022 H          1 UNL1 0.000
    36 H     -10.057272    -4.374712     0.961010 H          1 UNL1 0.000
    37 H      -9.361389    -4.821800     2.524108 H          1 UNL1 0.000
    38 H      -4.449197     1.833482     3.345539 H          1 UNL1 0.000
    39 H      -1.993631     1.716124     3.311340 H          1 UNL1 0.000
    40 H      -2.170271    -1.080890     0.034591 H          1 UNL1 0.000
    41 H      -4.624665    -0.957701     0.061011 H          1 UNL1 0.000
    42 H      -0.027462    -0.424668     2.452259 H          1 UNL1 0.000
    43 H      -0.197314     1.521305     0.074690 H          1 UNL1 0.000
    44 C       1.738508     0.849067     0.719537 C          1 UNL1 0.000
    45 C       2.546948    -0.092152     1.324126 C          1 UNL1 0.000
    46 S       4.210177     0.174395     1.010968 S          1 UNL1 0.000
    47 C       3.863844     1.549767     0.057184 C          1 UNL1 0.000
    48 C       2.510275     1.796298    -0.022524 C          1 UNL1 0.000
    49 H       2.259397    -0.937389     1.933474 H          1 UNL1 0.000
    50 H       4.667498     2.110260    -0.400052 H          1 UNL1 0.000
    51 H       2.098431     2.626523    -0.583690 H          1 UNL1 0.000
@<TRIPOS>BOND
     1      1      2   2
     2      2      3   1
     3      3      4   2
     4      4      5   1
     5      5      6   2
     6      6      1   1
     7      4      7   1
     8      7      8   1
     9      8      9   2
    10      9     10   1
    11     10     11   2
    12     11     12   1
    13     12     13   2
    14     13      8   1
    15      1     14   1
    16     11     15   1
    17     16     17   2
    18     17     18   1
    19     18     19   2
    20     19     20   1
    21     20     21   2
    22     21     16   1
    23     19     22   1
    24     22     23   2
    25      7     16   1
    26      2     24   1
    27      3     25   1
    28      5     26   1
    29      6     27   1
    30      9     28   1
    31     10     29   1
    32     12     30   1
    33     13     31   1
    34     14     32   1
    35     14     33   1
    36     14     34   1
    37     15     35   1
    38     15     36   1
    39     15     37   1
    40     17     38   1
    41     18     39   1
    42     20     40   1
    43     21     41   1
    44     22     42   1
    45     23     43   1
    46     44     45   2
    47     45     46   1
    48     46     47   1
    49     47     48   2
    50     48     44   1
    51     45     49   1
    52     47     50   1
    53     48     51   1
    54     23     44   1
