# Produced with molli package
@<TRIPOS>MOLECULE
C_7_Q
52 55 0 0 0
SMALL
USER_CHARGES

@<TRIPOS>ATOM
     1 C      -8.286057     4.289871     1.657723 C          1 UNL1 0.000
     2 C      -8.829984     3.153734     1.052571 C          1 UNL1 0.000
     3 C      -8.157630     1.926621     1.107806 C          1 UNL1 0.000
     4 C      -6.926809     1.798351     1.772353 C          1 UNL1 0.000
     5 C      -6.374885     2.959915     2.343059 C          1 UNL1 0.000
     6 C      -7.042423     4.188197     2.285549 C          1 UNL1 0.000
     7 N      -6.231729     0.534950     1.853278 N          1 UNL1 0.000
     8 C      -6.917932    -0.736098     1.913013 C          1 UNL1 0.000
     9 C      -8.166471    -0.874465     2.541528 C          1 UNL1 0.000
    10 C      -8.837707    -2.103679     2.563479 C          1 UNL1 0.000
    11 C      -8.272240    -3.234360     1.966934 C          1 UNL1 0.000
    12 C      -7.011060    -3.124805     1.379127 C          1 UNL1 0.000
    13 C      -6.346649    -1.893972     1.351831 C          1 UNL1 0.000
    14 C      -8.990850     5.611379     1.583171 C          1 UNL1 0.000
    15 C      -8.991948    -4.549343     1.999227 C          1 UNL1 0.000
    16 C      -4.795793     0.538958     1.802848 C          1 UNL1 0.000
    17 C      -4.042821     0.125826     2.908260 C          1 UNL1 0.000
    18 C      -2.646133     0.097975     2.841184 C          1 UNL1 0.000
    19 C      -1.972078     0.462238     1.665710 C          1 UNL1 0.000
    20 C      -2.732502     0.867218     0.560243 C          1 UNL1 0.000
    21 C      -4.128548     0.922892     0.632770 C          1 UNL1 0.000
    22 C      -0.502681     0.343875     1.637488 C          1 UNL1 0.000
    23 C       0.316020     0.884045     0.720161 C          1 UNL1 0.000
    24 H      -9.782334     3.211364     0.530381 H          1 UNL1 0.000
    25 H      -8.602608     1.071126     0.605683 H          1 UNL1 0.000
    26 H      -5.419455     2.917924     2.860502 H          1 UNL1 0.000
    27 H      -6.583098     5.061829     2.742571 H          1 UNL1 0.000
    28 H      -8.629899    -0.024308     3.035984 H          1 UNL1 0.000
    29 H      -9.807405    -2.169028     3.051854 H          1 UNL1 0.000
    30 H      -6.533830    -3.991442     0.927364 H          1 UNL1 0.000
    31 H      -5.376966    -1.850494     0.861918 H          1 UNL1 0.000
    32 H      -8.613585     6.190809     0.735099 H          1 UNL1 0.000
    33 H      -8.835956     6.184915     2.503350 H          1 UNL1 0.000
    34 H     -10.070921     5.475214     1.464590 H          1 UNL1 0.000
    35 H      -8.555915    -5.258883     1.287770 H          1 UNL1 0.000
    36 H     -10.043192    -4.416100     1.723257 H          1 UNL1 0.000
    37 H      -8.934884    -4.985409     3.001112 H          1 UNL1 0.000
    38 H      -4.545453    -0.168126     3.826286 H          1 UNL1 0.000
    39 H      -2.090231    -0.220533     3.720771 H          1 UNL1 0.000
    40 H      -2.262388     1.126741    -0.383310 H          1 UNL1 0.000
    41 H      -4.701466     1.227051    -0.239855 H          1 UNL1 0.000
    42 H      -0.070824    -0.238615     2.451613 H          1 UNL1 0.000
    43 H      -0.074587     1.485526    -0.093476 H          1 UNL1 0.000
    44 C       1.778031     0.722516     0.735192 C          1 UNL1 0.000
    45 N       2.321035    -0.106088     1.661710 N          1 UNL1 0.000
    46 C       3.668698    -0.228157     1.629595 C          1 UNL1 0.000
    47 C       4.456941     0.447996     0.714683 C          1 UNL1 0.000
    48 N       3.934309     1.276584    -0.214997 N          1 UNL1 0.000
    49 C       2.582680     1.394632    -0.182710 C          1 UNL1 0.000
    50 H       4.102044    -0.892905     2.368054 H          1 UNL1 0.000
    51 H       5.535455     0.340109     0.705532 H          1 UNL1 0.000
    52 H       2.163060     2.060107    -0.929495 H          1 UNL1 0.000
@<TRIPOS>BOND
     1      1      2   2
     2      2      3   1
     3      3      4   2
     4      4      5   1
     5      5      6   2
     6      6      1   1
     7      4      7   1
     8      7      8   1
     9      8      9   2
    10      9     10   1
    11     10     11   2
    12     11     12   1
    13     12     13   2
    14     13      8   1
    15      1     14   1
    16     11     15   1
    17     16     17   2
    18     17     18   1
    19     18     19   2
    20     19     20   1
    21     20     21   2
    22     21     16   1
    23     19     22   1
    24     22     23   2
    25      7     16   1
    26      2     24   1
    27      3     25   1
    28      5     26   1
    29      6     27   1
    30      9     28   1
    31     10     29   1
    32     12     30   1
    33     13     31   1
    34     14     32   1
    35     14     33   1
    36     14     34   1
    37     15     35   1
    38     15     36   1
    39     15     37   1
    40     17     38   1
    41     18     39   1
    42     20     40   1
    43     21     41   1
    44     22     42   1
    45     23     43   1
    46     44     45   2
    47     45     46   1
    48     46     47   2
    49     47     48   1
    50     48     49   2
    51     49     44   1
    52     46     50   1
    53     47     51   1
    54     49     52   1
    55     23     44   1
