# Produced with molli package
@<TRIPOS>MOLECULE
C_8_M
52 56 0 0 0
SMALL
USER_CHARGES

@<TRIPOS>ATOM
     1 C      -5.913196     4.304246     0.375326 C          1 UNL1 0.000
     2 C      -6.541299     3.163477    -0.126529 C          1 UNL1 0.000
     3 C      -5.888370     1.921808    -0.109927 C          1 UNL1 0.000
     4 C      -4.614327     1.764779     0.459630 C          1 UNL1 0.000
     5 C      -3.979490     2.940037     0.912006 C          1 UNL1 0.000
     6 C      -4.614945     4.187290     0.871179 C          1 UNL1 0.000
     7 N      -3.954949     0.477056     0.566439 N          1 UNL1 0.000
     8 C      -4.643606    -0.798879     0.639801 C          1 UNL1 0.000
     9 C      -5.974971    -0.918430     1.073075 C          1 UNL1 0.000
    10 C      -6.653122    -2.146655     1.048872 C          1 UNL1 0.000
    11 C      -6.002634    -3.311698     0.639878 C          1 UNL1 0.000
    12 C      -4.651416    -3.236643     0.308356 C          1 UNL1 0.000
    13 C      -3.989018    -2.002134     0.302518 C          1 UNL1 0.000
    14 C      -6.611553     5.630604     0.406864 C          1 UNL1 0.000
    15 C      -6.734650    -4.619162     0.595352 C          1 UNL1 0.000
    16 C      -2.519347     0.468327     0.493578 C          1 UNL1 0.000
    17 C      -1.748141     0.422195     1.683052 C          1 UNL1 0.000
    18 C      -0.334101     0.422955     1.703812 C          1 UNL1 0.000
    19 C       0.457910     0.446097     0.535614 C          1 UNL1 0.000
    20 C      -0.254643     0.470252    -0.699751 C          1 UNL1 0.000
    21 C      -1.767728     0.489048    -0.721612 C          1 UNL1 0.000
    22 N       0.281570     0.471086    -1.933796 N          1 UNL1 0.000
    23 S      -0.980383     0.487796    -3.007137 S          1 UNL1 0.000
    24 N      -2.269004     0.500271    -1.969555 N          1 UNL1 0.000
    25 H      -7.545892     3.224850    -0.539116 H          1 UNL1 0.000
    26 H      -6.399524     1.078448    -0.566124 H          1 UNL1 0.000
    27 H      -2.977992     2.909525     1.330052 H          1 UNL1 0.000
    28 H      -4.088731     5.063450     1.243607 H          1 UNL1 0.000
    29 H      -6.521166    -0.054972     1.441717 H          1 UNL1 0.000
    30 H      -7.698784    -2.180048     1.347335 H          1 UNL1 0.000
    31 H      -4.100787    -4.131963     0.028547 H          1 UNL1 0.000
    32 H      -2.946308    -2.009502    -0.000170 H          1 UNL1 0.000
    33 H      -6.007177     6.392704    -0.095342 H          1 UNL1 0.000
    34 H      -6.783571     5.936351     1.444414 H          1 UNL1 0.000
    35 H      -7.582362     5.586801    -0.097165 H          1 UNL1 0.000
    36 H      -6.178923    -5.365464     0.017102 H          1 UNL1 0.000
    37 H      -7.708371    -4.494041     0.109731 H          1 UNL1 0.000
    38 H      -6.883659    -5.005631     1.607729 H          1 UNL1 0.000
    39 H      -2.278487     0.401002     2.636818 H          1 UNL1 0.000
    40 H       0.163130     0.403624     2.675148 H          1 UNL1 0.000
    41 C       1.916230     0.432835     0.568931 C          1 UNL1 0.000
    42 C       2.645171     1.631762     0.577119 C          1 UNL1 0.000
    43 C       4.043700     1.618602     0.602455 C          1 UNL1 0.000
    44 C       4.733136     0.403048     0.620807 C          1 UNL1 0.000
    45 C       4.017903    -0.797516     0.617010 C          1 UNL1 0.000
    46 C       2.619700    -0.780963     0.592432 C          1 UNL1 0.000
    47 C       6.167418     0.387181     0.641258 C          1 UNL1 0.000
    48 N       7.326493     0.373470     0.661759 N          1 UNL1 0.000
    49 H       2.124976     2.587888     0.552203 H          1 UNL1 0.000
    50 H       4.586319     2.562205     0.600864 H          1 UNL1 0.000
    51 H       4.539917    -1.752570     0.626351 H          1 UNL1 0.000
    52 H       2.078977    -1.725824     0.579111 H          1 UNL1 0.000
@<TRIPOS>BOND
     1      1      2   2
     2      2      3   1
     3      3      4   2
     4      4      5   1
     5      5      6   2
     6      6      1   1
     7      4      7   1
     8      7      8   1
     9      8      9   2
    10      9     10   1
    11     10     11   2
    12     11     12   1
    13     12     13   2
    14     13      8   1
    15      1     14   1
    16     11     15   1
    17     16     17   2
    18     17     18   1
    19     18     19   2
    20     19     20   1
    21     20     21   1
    22     21     16   1
    23     20     22   2
    24     22     23   1
    25     23     24   1
    26     24     21   2
    27      7     16   1
    28      2     25   1
    29      3     26   1
    30      5     27   1
    31      6     28   1
    32      9     29   1
    33     10     30   1
    34     12     31   1
    35     13     32   1
    36     14     33   1
    37     14     34   1
    38     14     35   1
    39     15     36   1
    40     15     37   1
    41     15     38   1
    42     17     39   1
    43     18     40   1
    44     41     42   2
    45     42     43   1
    46     43     44   2
    47     44     45   1
    48     45     46   2
    49     46     41   1
    50     47     48   3
    51     44     47   1
    52     42     49   1
    53     43     50   1
    54     45     51   1
    55     46     52   1
    56     19     41   1
