# Produced with molli package
@<TRIPOS>MOLECULE
C_8_K
53 57 0 0 0
SMALL
USER_CHARGES

@<TRIPOS>ATOM
     1 C      -6.035590     4.308070     0.384391 C          1 UNL1 0.000
     2 C      -6.599755     3.181903    -0.219522 C          1 UNL1 0.000
     3 C      -5.909418     1.962887    -0.239011 C          1 UNL1 0.000
     4 C      -4.650646     1.824625     0.368596 C          1 UNL1 0.000
     5 C      -4.083570     2.977806     0.943284 C          1 UNL1 0.000
     6 C      -4.766479     4.199204     0.956586 C          1 UNL1 0.000
     7 N      -3.952626     0.560366     0.399377 N          1 UNL1 0.000
     8 C      -4.622178    -0.718482     0.476730 C          1 UNL1 0.000
     9 C      -5.871130    -0.866009     1.103164 C          1 UNL1 0.000
    10 C      -6.519338    -2.106771     1.157546 C          1 UNL1 0.000
    11 C      -5.925150    -3.245169     0.606864 C          1 UNL1 0.000
    12 C      -4.667033    -3.126195     0.015773 C          1 UNL1 0.000
    13 C      -4.028700    -1.882267    -0.049275 C          1 UNL1 0.000
    14 C      -6.778089     5.609261     0.450011 C          1 UNL1 0.000
    15 C      -6.628196    -4.568202     0.665765 C          1 UNL1 0.000
    16 C      -2.520433     0.578646     0.325115 C          1 UNL1 0.000
    17 C      -1.748024     0.345645     1.490819 C          1 UNL1 0.000
    18 C      -0.334783     0.352149     1.512169 C          1 UNL1 0.000
    19 C       0.457508     0.576101     0.365237 C          1 UNL1 0.000
    20 C      -0.257694     0.796109    -0.849955 C          1 UNL1 0.000
    21 C      -1.770946     0.802725    -0.869552 C          1 UNL1 0.000
    22 N       0.276858     1.000740    -2.067855 N          1 UNL1 0.000
    23 S      -0.986231     1.170187    -3.126425 S          1 UNL1 0.000
    24 N      -2.273522     1.004727    -2.100580 N          1 UNL1 0.000
    25 H      -7.581505     3.239189    -0.684060 H          1 UNL1 0.000
    26 H      -6.367594     1.119486    -0.749950 H          1 UNL1 0.000
    27 H      -3.108061     2.939377     1.419143 H          1 UNL1 0.000
    28 H      -4.301083     5.062548     1.426981 H          1 UNL1 0.000
    29 H      -6.357956    -0.014682     1.572114 H          1 UNL1 0.000
    30 H      -7.493972    -2.174928     1.635879 H          1 UNL1 0.000
    31 H      -4.172544    -3.995559    -0.411654 H          1 UNL1 0.000
    32 H      -3.063731    -1.838921    -0.546655 H          1 UNL1 0.000
    33 H      -6.153525     6.424428     0.070495 H          1 UNL1 0.000
    34 H      -7.060211     5.826197     1.485556 H          1 UNL1 0.000
    35 H      -7.691673     5.581633    -0.152583 H          1 UNL1 0.000
    36 H      -6.073858    -5.341373     0.123180 H          1 UNL1 0.000
    37 H      -7.620028    -4.489768     0.208770 H          1 UNL1 0.000
    38 H      -6.733963    -4.893543     1.705304 H          1 UNL1 0.000
    39 H      -2.276963     0.168039     2.428995 H          1 UNL1 0.000
    40 H       0.160953     0.181782     2.469438 H          1 UNL1 0.000
    41 C       1.917455     0.569419     0.399543 C          1 UNL1 0.000
    42 C       2.621471    -0.631236     0.595758 C          1 UNL1 0.000
    43 C       4.018887    -0.647664     0.623515 C          1 UNL1 0.000
    44 C       4.721171     0.550759     0.455740 C          1 UNL1 0.000
    45 C       4.042996     1.758584     0.265352 C          1 UNL1 0.000
    46 C       2.645642     1.761210     0.239126 C          1 UNL1 0.000
    47 N       6.184350     0.538072     0.479433 N          1 UNL1 0.000
    48 O       6.775348     1.473282    -0.081698 O          1 UNL1 0.000
    49 O       6.740305    -0.402637     1.061194 O          1 UNL1 0.000
    50 H       2.079890    -1.569086     0.711453 H          1 UNL1 0.000
    51 H       4.539471    -1.592483     0.763949 H          1 UNL1 0.000
    52 H       4.581168     2.695212     0.135462 H          1 UNL1 0.000
    53 H       2.121728     2.703659     0.084413 H          1 UNL1 0.000
@<TRIPOS>BOND
     1      1      2   2
     2      2      3   1
     3      3      4   2
     4      4      5   1
     5      5      6   2
     6      6      1   1
     7      4      7   1
     8      7      8   1
     9      8      9   2
    10      9     10   1
    11     10     11   2
    12     11     12   1
    13     12     13   2
    14     13      8   1
    15      1     14   1
    16     11     15   1
    17     16     17   2
    18     17     18   1
    19     18     19   2
    20     19     20   1
    21     20     21   1
    22     21     16   1
    23     20     22   2
    24     22     23   1
    25     23     24   1
    26     24     21   2
    27      7     16   1
    28      2     25   1
    29      3     26   1
    30      5     27   1
    31      6     28   1
    32      9     29   1
    33     10     30   1
    34     12     31   1
    35     13     32   1
    36     14     33   1
    37     14     34   1
    38     14     35   1
    39     15     36   1
    40     15     37   1
    41     15     38   1
    42     17     39   1
    43     18     40   1
    44     41     42   2
    45     42     43   1
    46     43     44   2
    47     44     45   1
    48     45     46   2
    49     46     41   1
    50     47     48   2
    51     47     49   1
    52     44     47   1
    53     42     50   1
    54     43     51   1
    55     45     52   1
    56     46     53   1
    57     19     41   1
