# Produced with molli package
@<TRIPOS>MOLECULE
C_8_P
55 59 0 0 0
SMALL
USER_CHARGES

@<TRIPOS>ATOM
     1 C      -6.017179     4.345728     0.659146 C          1 UNL1 0.000
     2 C      -6.541352     3.214970     1.291985 C          1 UNL1 0.000
     3 C      -5.860517     1.992733     1.244480 C          1 UNL1 0.000
     4 C      -4.645959     1.860907     0.550824 C          1 UNL1 0.000
     5 C      -4.122815     3.012700    -0.064113 C          1 UNL1 0.000
     6 C      -4.799434     4.236569    -0.015156 C          1 UNL1 0.000
     7 N      -3.950363     0.599658     0.483220 N          1 UNL1 0.000
     8 C      -4.633343    -0.670791     0.422526 C          1 UNL1 0.000
     9 C      -5.874399    -0.813197    -0.219052 C          1 UNL1 0.000
    10 C      -6.534433    -2.047749    -0.260920 C          1 UNL1 0.000
    11 C      -5.962342    -3.179411     0.325901 C          1 UNL1 0.000
    12 C      -4.718709    -3.058809     0.950320 C          1 UNL1 0.000
    13 C      -4.063127    -1.823795     0.993614 C          1 UNL1 0.000
    14 C      -6.766297     5.644264     0.694575 C          1 UNL1 0.000
    15 C      -6.661505    -4.505675     0.300633 C          1 UNL1 0.000
    16 C      -2.518837     0.601140     0.401537 C          1 UNL1 0.000
    17 C      -1.743878     0.914173     1.545825 C          1 UNL1 0.000
    18 C      -0.330745     0.874701     1.572349 C          1 UNL1 0.000
    19 C       0.459484     0.533258     0.452204 C          1 UNL1 0.000
    20 C      -0.258517     0.246926    -0.747016 C          1 UNL1 0.000
    21 C      -1.771271     0.277056    -0.771660 C          1 UNL1 0.000
    22 N       0.270377    -0.066124    -1.944367 N          1 UNL1 0.000
    23 S      -0.993817    -0.282358    -2.990835 S          1 UNL1 0.000
    24 N      -2.277674    -0.005963    -1.985192 N          1 UNL1 0.000
    25 H      -7.486493     3.275039     1.827043 H          1 UNL1 0.000
    26 H      -6.289258     1.141112     1.767265 H          1 UNL1 0.000
    27 H      -3.192485     2.967086    -0.624122 H          1 UNL1 0.000
    28 H      -4.368000     5.097882    -0.520080 H          1 UNL1 0.000
    29 H      -6.334427     0.036393    -0.717806 H          1 UNL1 0.000
    30 H      -7.495907    -2.114130    -0.764749 H          1 UNL1 0.000
    31 H      -4.249643    -3.925305     1.411050 H          1 UNL1 0.000
    32 H      -3.104683    -1.773684     1.502649 H          1 UNL1 0.000
    33 H      -6.202557     6.446422     0.206723 H          1 UNL1 0.000
    34 H      -6.950319     5.947671     1.730043 H          1 UNL1 0.000
    35 H      -7.723330     5.540222     0.173270 H          1 UNL1 0.000
    36 H      -6.018611    -5.264094    -0.157838 H          1 UNL1 0.000
    37 H      -7.589676    -4.460162    -0.278168 H          1 UNL1 0.000
    38 H      -6.913446    -4.816668     1.319711 H          1 UNL1 0.000
    39 H      -2.268939     1.166949     2.468665 H          1 UNL1 0.000
    40 H       0.167907     1.097822     2.517212 H          1 UNL1 0.000
    41 C       1.916743     0.453112     0.510140 C          1 UNL1 0.000
    42 C       2.698788     1.605604     0.680258 C          1 UNL1 0.000
    43 C       4.094205     1.522730     0.752147 C          1 UNL1 0.000
    44 C       4.722743     0.281122     0.671147 C          1 UNL1 0.000
    45 C       3.961734    -0.868422     0.475951 C          1 UNL1 0.000
    46 C       2.569380    -0.784960     0.405658 C          1 UNL1 0.000
    47 O       6.078649     0.106032     0.711886 O          1 UNL1 0.000
    48 C       6.721385     0.856755     1.738120 C          1 UNL1 0.000
    49 H       2.225261     2.583742     0.736073 H          1 UNL1 0.000
    50 H       4.669376     2.438230     0.843428 H          1 UNL1 0.000
    51 H       4.451602    -1.834145     0.386165 H          1 UNL1 0.000
    52 H       1.994383    -1.697715     0.262972 H          1 UNL1 0.000
    53 H       7.742317     0.475840     1.838425 H          1 UNL1 0.000
    54 H       6.218120     0.725258     2.702734 H          1 UNL1 0.000
    55 H       6.786463     1.916294     1.473343 H          1 UNL1 0.000
@<TRIPOS>BOND
     1      1      2   2
     2      2      3   1
     3      3      4   2
     4      4      5   1
     5      5      6   2
     6      6      1   1
     7      4      7   1
     8      7      8   1
     9      8      9   2
    10      9     10   1
    11     10     11   2
    12     11     12   1
    13     12     13   2
    14     13      8   1
    15      1     14   1
    16     11     15   1
    17     16     17   2
    18     17     18   1
    19     18     19   2
    20     19     20   1
    21     20     21   1
    22     21     16   1
    23     20     22   2
    24     22     23   1
    25     23     24   1
    26     24     21   2
    27      7     16   1
    28      2     25   1
    29      3     26   1
    30      5     27   1
    31      6     28   1
    32      9     29   1
    33     10     30   1
    34     12     31   1
    35     13     32   1
    36     14     33   1
    37     14     34   1
    38     14     35   1
    39     15     36   1
    40     15     37   1
    41     15     38   1
    42     17     39   1
    43     18     40   1
    44     41     42   2
    45     42     43   1
    46     43     44   2
    47     44     45   1
    48     45     46   2
    49     46     41   1
    50     47     48   1
    51     44     47   1
    52     42     49   1
    53     43     50   1
    54     45     51   1
    55     46     52   1
    56     48     53   1
    57     48     54   1
    58     48     55   1
    59     19     41   1
