# Produced with molli package
@<TRIPOS>MOLECULE
C_8_S
56 60 0 0 0
SMALL
USER_CHARGES

@<TRIPOS>ATOM
     1 C      -6.040421     4.371002     0.398719 C          1 UNL1 0.000
     2 C      -6.647218     3.228610    -0.127221 C          1 UNL1 0.000
     3 C      -5.967175     2.003233    -0.142988 C          1 UNL1 0.000
     4 C      -4.675499     1.872659     0.394127 C          1 UNL1 0.000
     5 C      -4.067876     3.043251     0.887881 C          1 UNL1 0.000
     6 C      -4.739043     4.271663     0.893934 C          1 UNL1 0.000
     7 N      -3.984148     0.603055     0.428841 N          1 UNL1 0.000
     8 C      -4.658217    -0.673447     0.511629 C          1 UNL1 0.000
     9 C      -5.886055    -0.823614     1.178063 C          1 UNL1 0.000
    10 C      -6.544885    -2.059275     1.227011 C          1 UNL1 0.000
    11 C      -5.977947    -3.192173     0.637536 C          1 UNL1 0.000
    12 C      -4.740399    -3.070953     0.004930 C          1 UNL1 0.000
    13 C      -4.091727    -1.831972    -0.053818 C          1 UNL1 0.000
    14 C      -6.764592     5.682877     0.452446 C          1 UNL1 0.000
    15 C      -6.705241    -4.503199     0.663530 C          1 UNL1 0.000
    16 C      -2.551556     0.609406     0.345458 C          1 UNL1 0.000
    17 C      -1.774825     0.430296     1.517920 C          1 UNL1 0.000
    18 C      -0.361406     0.436629     1.533162 C          1 UNL1 0.000
    19 C       0.425843     0.603953     0.373402 C          1 UNL1 0.000
    20 C      -0.292352     0.768093    -0.847829 C          1 UNL1 0.000
    21 C      -1.806216     0.776556    -0.861488 C          1 UNL1 0.000
    22 N       0.237371     0.918842    -2.075497 N          1 UNL1 0.000
    23 S      -1.029881     1.039570    -3.135559 S          1 UNL1 0.000
    24 N      -2.313763     0.924918    -2.098199 N          1 UNL1 0.000
    25 H      -7.654615     3.277315    -0.534317 H          1 UNL1 0.000
    26 H      -6.463111     1.149325    -0.597821 H          1 UNL1 0.000
    27 H      -3.064407     3.017973     1.302272 H          1 UNL1 0.000
    28 H      -4.237468     5.148462     1.297474 H          1 UNL1 0.000
    29 H      -6.349132     0.022820     1.678869 H          1 UNL1 0.000
    30 H      -7.507052    -2.127486     1.729926 H          1 UNL1 0.000
    31 H      -4.270658    -3.934244    -0.461081 H          1 UNL1 0.000
    32 H      -3.143716    -1.787139    -0.582510 H          1 UNL1 0.000
    33 H      -6.179763     6.461074    -0.048404 H          1 UNL1 0.000
    34 H      -6.932429     5.974906     1.494405 H          1 UNL1 0.000
    35 H      -7.739010     5.625386    -0.043289 H          1 UNL1 0.000
    36 H      -6.085604    -5.313441     0.264740 H          1 UNL1 0.000
    37 H      -7.612562    -4.440367     0.054155 H          1 UNL1 0.000
    38 H      -6.977521    -4.767818     1.690100 H          1 UNL1 0.000
    39 H      -2.299968     0.296577     2.465383 H          1 UNL1 0.000
    40 H       0.139942     0.306911     2.493917 H          1 UNL1 0.000
    41 C       1.884134     0.593478     0.404338 C          1 UNL1 0.000
    42 C       2.588318    -0.616483     0.446529 C          1 UNL1 0.000
    43 C       3.985927    -0.627833     0.489051 C          1 UNL1 0.000
    44 C       4.711329     0.571265     0.489918 C          1 UNL1 0.000
    45 C       4.015299     1.783265     0.440007 C          1 UNL1 0.000
    46 C       2.614314     1.790805     0.402287 C          1 UNL1 0.000
    47 C       6.203179     0.488710     0.544490 C          1 UNL1 0.000
    48 C       7.032588     1.742944     0.449168 C          1 UNL1 0.000
    49 O       6.746855    -0.612321     0.633806 O          1 UNL1 0.000
    50 H       2.053242    -1.564302     0.436559 H          1 UNL1 0.000
    51 H       4.506145    -1.584175     0.515195 H          1 UNL1 0.000
    52 H       4.526147     2.740391     0.428338 H          1 UNL1 0.000
    53 H       2.091657     2.745513     0.365907 H          1 UNL1 0.000
    54 H       8.003135     1.557910     0.921275 H          1 UNL1 0.000
    55 H       6.581765     2.580113     0.983800 H          1 UNL1 0.000
    56 H       7.190063     1.997338    -0.601885 H          1 UNL1 0.000
@<TRIPOS>BOND
     1      1      2   2
     2      2      3   1
     3      3      4   2
     4      4      5   1
     5      5      6   2
     6      6      1   1
     7      4      7   1
     8      7      8   1
     9      8      9   2
    10      9     10   1
    11     10     11   2
    12     11     12   1
    13     12     13   2
    14     13      8   1
    15      1     14   1
    16     11     15   1
    17     16     17   2
    18     17     18   1
    19     18     19   2
    20     19     20   1
    21     20     21   1
    22     21     16   1
    23     20     22   2
    24     22     23   1
    25     23     24   1
    26     24     21   2
    27      7     16   1
    28      2     25   1
    29      3     26   1
    30      5     27   1
    31      6     28   1
    32      9     29   1
    33     10     30   1
    34     12     31   1
    35     13     32   1
    36     14     33   1
    37     14     34   1
    38     14     35   1
    39     15     36   1
    40     15     37   1
    41     15     38   1
    42     17     39   1
    43     18     40   1
    44     41     42   2
    45     42     43   1
    46     43     44   2
    47     44     45   1
    48     45     46   2
    49     46     41   1
    50     44     47   1
    51     47     48   1
    52     47     49   2
    53     42     50   1
    54     43     51   1
    55     45     52   1
    56     46     53   1
    57     48     54   1
    58     48     55   1
    59     48     56   1
    60     19     41   1
