# Produced with molli package
@<TRIPOS>MOLECULE
C_8_L
55 60 0 0 0
SMALL
USER_CHARGES

@<TRIPOS>ATOM
     1 C      -6.081920     4.274679     0.769993 C          1 UNL1 0.000
     2 C      -6.646768     3.108290     1.291026 C          1 UNL1 0.000
     3 C      -5.944863     1.896234     1.251355 C          1 UNL1 0.000
     4 C      -4.674352     1.801248     0.657743 C          1 UNL1 0.000
     5 C      -4.108088     2.995881     0.172769 C          1 UNL1 0.000
     6 C      -4.799370     4.212328     0.225035 C          1 UNL1 0.000
     7 N      -3.965206     0.543736     0.566541 N          1 UNL1 0.000
     8 C      -4.623119    -0.742019     0.485369 C          1 UNL1 0.000
     9 C      -5.884415    -0.898275    -0.113241 C          1 UNL1 0.000
    10 C      -6.534459    -2.139517    -0.139070 C          1 UNL1 0.000
    11 C      -5.927823    -3.270427     0.411400 C          1 UNL1 0.000
    12 C      -4.648254    -3.147169     0.955923 C          1 UNL1 0.000
    13 C      -4.007543    -1.903080     0.991243 C          1 UNL1 0.000
    14 C      -6.855790     5.558772     0.777704 C          1 UNL1 0.000
    15 C      -6.614978    -4.603089     0.404935 C          1 UNL1 0.000
    16 C      -2.533857     0.568752     0.467756 C          1 UNL1 0.000
    17 C      -1.744865     0.704127     1.637506 C          1 UNL1 0.000
    18 C      -0.331147     0.705374     1.635074 C          1 UNL1 0.000
    19 C       0.443181     0.591374     0.459904 C          1 UNL1 0.000
    20 C      -0.288618     0.484347    -0.759640 C          1 UNL1 0.000
    21 C      -1.802197     0.466800    -0.755042 C          1 UNL1 0.000
    22 N       0.224790     0.394897    -2.000156 N          1 UNL1 0.000
    23 S      -1.054289     0.315238    -3.048272 S          1 UNL1 0.000
    24 N      -2.325500     0.372668    -1.990815 N          1 UNL1 0.000
    25 H      -7.641861     3.130322     1.729831 H          1 UNL1 0.000
    26 H      -6.412598     1.022439     1.697786 H          1 UNL1 0.000
    27 H      -3.124748     3.000848    -0.288720 H          1 UNL1 0.000
    28 H      -4.326681     5.104179    -0.180159 H          1 UNL1 0.000
    29 H      -6.377518    -0.052131    -0.585356 H          1 UNL1 0.000
    30 H      -7.518897    -2.209293    -0.596089 H          1 UNL1 0.000
    31 H      -4.140902    -4.017086     1.367073 H          1 UNL1 0.000
    32 H      -3.022596    -1.857695     1.446463 H          1 UNL1 0.000
    33 H      -6.251224     6.393897     0.408310 H          1 UNL1 0.000
    34 H      -7.177830     5.803706     1.794577 H          1 UNL1 0.000
    35 H      -7.735499     5.469291     0.132001 H          1 UNL1 0.000
    36 H      -6.087786    -5.297664    -0.256348 H          1 UNL1 0.000
    37 H      -7.650295    -4.519344     0.058710 H          1 UNL1 0.000
    38 H      -6.638960    -5.019539     1.417722 H          1 UNL1 0.000
    39 H      -2.258808     0.789295     2.596414 H          1 UNL1 0.000
    40 H       0.183103     0.789190     2.594159 H          1 UNL1 0.000
    41 C       1.902579     0.574936     0.477741 C          1 UNL1 0.000
    42 C       2.598814    -0.639923     0.400393 C          1 UNL1 0.000
    43 C       3.997503    -0.693654     0.424545 C          1 UNL1 0.000
    44 C       4.686826     0.518171     0.525687 C          1 UNL1 0.000
    45 C       4.037439     1.748859     0.604947 C          1 UNL1 0.000
    46 C       2.628281     1.775716     0.584951 C          1 UNL1 0.000
    47 N       6.040091     0.770247     0.561291 N          1 UNL1 0.000
    48 C       6.267177     2.117763     0.659625 C          1 UNL1 0.000
    49 C       5.045150     2.749355     0.688546 C          1 UNL1 0.000
    50 H       2.045516    -1.573902     0.312899 H          1 UNL1 0.000
    51 H       4.518207    -1.642995     0.358998 H          1 UNL1 0.000
    52 H       2.110240     2.729300     0.639159 H          1 UNL1 0.000
    53 H       6.756025     0.059475     0.515068 H          1 UNL1 0.000
    54 H       7.275123     2.508764     0.696590 H          1 UNL1 0.000
    55 H       4.888731     3.817823     0.757758 H          1 UNL1 0.000
@<TRIPOS>BOND
     1      1      2   2
     2      2      3   1
     3      3      4   2
     4      4      5   1
     5      5      6   2
     6      6      1   1
     7      4      7   1
     8      7      8   1
     9      8      9   2
    10      9     10   1
    11     10     11   2
    12     11     12   1
    13     12     13   2
    14     13      8   1
    15      1     14   1
    16     11     15   1
    17     16     17   2
    18     17     18   1
    19     18     19   2
    20     19     20   1
    21     20     21   1
    22     21     16   1
    23     20     22   2
    24     22     23   1
    25     23     24   1
    26     24     21   2
    27      7     16   1
    28      2     25   1
    29      3     26   1
    30      5     27   1
    31      6     28   1
    32      9     29   1
    33     10     30   1
    34     12     31   1
    35     13     32   1
    36     14     33   1
    37     14     34   1
    38     14     35   1
    39     15     36   1
    40     15     37   1
    41     15     38   1
    42     17     39   1
    43     18     40   1
    44     41     42   2
    45     42     43   1
    46     43     44   2
    47     44     45   1
    48     45     46   2
    49     46     41   1
    50     44     47   1
    51     47     48   1
    52     48     49   2
    53     49     45   1
    54     42     50   1
    55     43     51   1
    56     46     52   1
    57     47     53   1
    58     48     54   1
    59     49     55   1
    60     19     41   1
