# Produced with molli package
@<TRIPOS>MOLECULE
C_8_T
54 58 0 0 0
SMALL
USER_CHARGES

@<TRIPOS>ATOM
     1 C      -6.084976     4.340149     0.358095 C          1 UNL1 0.000
     2 C      -6.690710     3.196468    -0.167603 C          1 UNL1 0.000
     3 C      -6.024079     1.963739    -0.150047 C          1 UNL1 0.000
     4 C      -4.748881     1.827921     0.423058 C          1 UNL1 0.000
     5 C      -4.146771     2.995959     0.929547 C          1 UNL1 0.000
     6 C      -4.805227     4.230707     0.904492 C          1 UNL1 0.000
     7 N      -4.065184     0.555439     0.478660 N          1 UNL1 0.000
     8 C      -4.745968    -0.716286     0.569502 C          1 UNL1 0.000
     9 C      -5.981963    -0.850929     1.223902 C          1 UNL1 0.000
    10 C      -6.642586    -2.084828     1.291522 C          1 UNL1 0.000
    11 C      -6.074701    -3.228566     0.724135 C          1 UNL1 0.000
    12 C      -4.827091    -3.123184     0.108889 C          1 UNL1 0.000
    13 C      -4.176184    -1.886501     0.032086 C          1 UNL1 0.000
    14 C      -6.804691     5.655341     0.384584 C          1 UNL1 0.000
    15 C      -6.786522    -4.545952     0.801111 C          1 UNL1 0.000
    16 C      -2.633067     0.556690     0.392288 C          1 UNL1 0.000
    17 C      -1.853824     0.402931     1.566702 C          1 UNL1 0.000
    18 C      -0.440726     0.417722     1.578378 C          1 UNL1 0.000
    19 C       0.342621     0.565608     0.413662 C          1 UNL1 0.000
    20 C      -0.378048     0.697388    -0.810445 C          1 UNL1 0.000
    21 C      -1.891516     0.699795    -0.819723 C          1 UNL1 0.000
    22 N       0.146474     0.822175    -2.042720 N          1 UNL1 0.000
    23 S      -1.123360     0.921650    -3.100733 S          1 UNL1 0.000
    24 N      -2.404030     0.820383    -2.058162 N          1 UNL1 0.000
    25 H      -7.685693     3.251764    -0.603375 H          1 UNL1 0.000
    26 H      -6.514351     1.109020    -0.609430 H          1 UNL1 0.000
    27 H      -3.158000     2.963120     1.377637 H          1 UNL1 0.000
    28 H      -4.309147     5.104443     1.321227 H          1 UNL1 0.000
    29 H      -6.447147     0.005704     1.705057 H          1 UNL1 0.000
    30 H      -7.605925    -2.143404     1.793299 H          1 UNL1 0.000
    31 H      -4.350459    -3.997432    -0.328767 H          1 UNL1 0.000
    32 H      -3.221006    -1.854359    -0.484513 H          1 UNL1 0.000
    33 H      -6.126597     6.470750     0.111492 H          1 UNL1 0.000
    34 H      -7.201855     5.843127     1.387283 H          1 UNL1 0.000
    35 H      -7.636744     5.668885    -0.326770 H          1 UNL1 0.000
    36 H      -6.288645    -5.306030     0.189493 H          1 UNL1 0.000
    37 H      -7.811751    -4.445539     0.430115 H          1 UNL1 0.000
    38 H      -6.809938    -4.902071     1.835573 H          1 UNL1 0.000
    39 H      -2.376210     0.287510     2.517773 H          1 UNL1 0.000
    40 H       0.065231     0.314040     2.539928 H          1 UNL1 0.000
    41 C       1.800238     0.581772     0.443647 C          1 UNL1 0.000
    42 C       2.502032     1.794547     0.487480 C          1 UNL1 0.000
    43 C       3.899310     1.812458     0.519696 C          1 UNL1 0.000
    44 C       4.623442     0.616345     0.498657 C          1 UNL1 0.000
    45 C       3.928386    -0.597548     0.471648 C          1 UNL1 0.000
    46 C       2.531042    -0.614048     0.442402 C          1 UNL1 0.000
    47 C       6.122308     0.625620     0.546488 C          1 UNL1 0.000
    48 H       1.961470     2.738813     0.490456 H          1 UNL1 0.000
    49 H       4.415846     2.768949     0.552633 H          1 UNL1 0.000
    50 H       4.470968    -1.540175     0.465283 H          1 UNL1 0.000
    51 H       2.014132    -1.570691     0.408188 H          1 UNL1 0.000
    52 H       6.532619    -0.110195    -0.153074 H          1 UNL1 0.000
    53 H       6.466584     0.389628     1.558054 H          1 UNL1 0.000
    54 H       6.522727     1.604367     0.262096 H          1 UNL1 0.000
@<TRIPOS>BOND
     1      1      2   2
     2      2      3   1
     3      3      4   2
     4      4      5   1
     5      5      6   2
     6      6      1   1
     7      4      7   1
     8      7      8   1
     9      8      9   2
    10      9     10   1
    11     10     11   2
    12     11     12   1
    13     12     13   2
    14     13      8   1
    15      1     14   1
    16     11     15   1
    17     16     17   2
    18     17     18   1
    19     18     19   2
    20     19     20   1
    21     20     21   1
    22     21     16   1
    23     20     22   2
    24     22     23   1
    25     23     24   1
    26     24     21   2
    27      7     16   1
    28      2     25   1
    29      3     26   1
    30      5     27   1
    31      6     28   1
    32      9     29   1
    33     10     30   1
    34     12     31   1
    35     13     32   1
    36     14     33   1
    37     14     34   1
    38     14     35   1
    39     15     36   1
    40     15     37   1
    41     15     38   1
    42     17     39   1
    43     18     40   1
    44     41     42   2
    45     42     43   1
    46     43     44   2
    47     44     45   1
    48     45     46   2
    49     46     41   1
    50     44     47   1
    51     42     48   1
    52     43     49   1
    53     45     50   1
    54     46     51   1
    55     47     52   1
    56     47     53   1
    57     47     54   1
    58     19     41   1
