# Produced with molli package
@<TRIPOS>MOLECULE
C_8_O
50 54 0 0 0
SMALL
USER_CHARGES

@<TRIPOS>ATOM
     1 C      -5.993361     4.282990     0.763930 C          1 UNL1 0.000
     2 C      -6.566651     3.125805     1.297741 C          1 UNL1 0.000
     3 C      -5.893832     1.898838     1.228912 C          1 UNL1 0.000
     4 C      -4.642464     1.784144     0.600235 C          1 UNL1 0.000
     5 C      -4.076267     2.963118     0.079188 C          1 UNL1 0.000
     6 C      -4.741523     4.192163     0.154237 C          1 UNL1 0.000
     7 N      -3.948848     0.519874     0.512856 N          1 UNL1 0.000
     8 C      -4.625095    -0.753257     0.433328 C          1 UNL1 0.000
     9 C      -5.862151    -0.896512    -0.216065 C          1 UNL1 0.000
    10 C      -6.520196    -2.132210    -0.266702 C          1 UNL1 0.000
    11 C      -5.945644    -3.267272     0.310793 C          1 UNL1 0.000
    12 C      -4.704065    -3.147347     0.938791 C          1 UNL1 0.000
    13 C      -4.051903    -1.910636     0.992589 C          1 UNL1 0.000
    14 C      -6.734357     5.585843     0.806444 C          1 UNL1 0.000
    15 C      -6.650960    -4.590354     0.290693 C          1 UNL1 0.000
    16 C      -2.517024     0.525643     0.428313 C          1 UNL1 0.000
    17 C      -1.739854     0.729674     1.595273 C          1 UNL1 0.000
    18 C      -0.326867     0.738106     1.604214 C          1 UNL1 0.000
    19 C       0.457066     0.574823     0.440503 C          1 UNL1 0.000
    20 C      -0.260477     0.392298    -0.775056 C          1 UNL1 0.000
    21 C      -1.774254     0.353470    -0.780669 C          1 UNL1 0.000
    22 N       0.261688     0.262449    -2.009626 N          1 UNL1 0.000
    23 S      -1.007529     0.064133    -3.053751 S          1 UNL1 0.000
    24 N      -2.287109     0.182139    -2.011771 N          1 UNL1 0.000
    25 H      -7.543694     3.167990     1.774039 H          1 UNL1 0.000
    26 H      -6.362446     1.030635     1.685619 H          1 UNL1 0.000
    27 H      -3.114697     2.942167    -0.425974 H          1 UNL1 0.000
    28 H      -4.272358     5.072948    -0.278263 H          1 UNL1 0.000
    29 H      -6.322873    -0.045598    -0.711820 H          1 UNL1 0.000
    30 H      -7.482245    -2.196922    -0.769665 H          1 UNL1 0.000
    31 H      -4.233127    -4.015172     1.395246 H          1 UNL1 0.000
    32 H      -3.093745    -1.864594     1.502616 H          1 UNL1 0.000
    33 H      -6.074240     6.427781     0.572106 H          1 UNL1 0.000
    34 H      -7.146340     5.760125     1.805594 H          1 UNL1 0.000
    35 H      -7.550553     5.576221     0.077198 H          1 UNL1 0.000
    36 H      -5.972189    -5.379516    -0.049167 H          1 UNL1 0.000
    37 H      -7.508872    -4.577102    -0.389300 H          1 UNL1 0.000
    38 H      -7.012613    -4.836712     1.294204 H          1 UNL1 0.000
    39 H      -2.262513     0.865290     2.543688 H          1 UNL1 0.000
    40 H       0.180769     0.870456     2.560957 H          1 UNL1 0.000
    41 C       1.909419     0.591789     0.460023 C          1 UNL1 0.000
    42 N       2.506385    -0.615131     0.612209 N          1 UNL1 0.000
    43 C       3.856923    -0.638405     0.629591 C          1 UNL1 0.000
    44 C       4.649486     0.493074     0.535106 C          1 UNL1 0.000
    45 C       4.021208     1.725833     0.409299 C          1 UNL1 0.000
    46 C       2.630640     1.779985     0.368352 C          1 UNL1 0.000
    47 H       4.299961    -1.625693     0.723655 H          1 UNL1 0.000
    48 H       5.730516     0.414478     0.557061 H          1 UNL1 0.000
    49 H       4.607576     2.637130     0.336653 H          1 UNL1 0.000
    50 H       2.121882     2.732486     0.262314 H          1 UNL1 0.000
@<TRIPOS>BOND
     1      1      2   2
     2      2      3   1
     3      3      4   2
     4      4      5   1
     5      5      6   2
     6      6      1   1
     7      4      7   1
     8      7      8   1
     9      8      9   2
    10      9     10   1
    11     10     11   2
    12     11     12   1
    13     12     13   2
    14     13      8   1
    15      1     14   1
    16     11     15   1
    17     16     17   2
    18     17     18   1
    19     18     19   2
    20     19     20   1
    21     20     21   1
    22     21     16   1
    23     20     22   2
    24     22     23   1
    25     23     24   1
    26     24     21   2
    27      7     16   1
    28      2     25   1
    29      3     26   1
    30      5     27   1
    31      6     28   1
    32      9     29   1
    33     10     30   1
    34     12     31   1
    35     13     32   1
    36     14     33   1
    37     14     34   1
    38     14     35   1
    39     15     36   1
    40     15     37   1
    41     15     38   1
    42     17     39   1
    43     18     40   1
    44     41     42   2
    45     42     43   1
    46     43     44   2
    47     44     45   1
    48     45     46   2
    49     46     41   1
    50     43     47   1
    51     44     48   1
    52     45     49   1
    53     46     50   1
    54     19     41   1
