# Produced with molli package
@<TRIPOS>MOLECULE
C_8_N
48 52 0 0 0
SMALL
USER_CHARGES

@<TRIPOS>ATOM
     1 C      -5.961780     4.277638     0.317316 C          1 UNL1 0.000
     2 C      -6.537079     3.147041    -0.267787 C          1 UNL1 0.000
     3 C      -5.882076     1.908843    -0.222720 C          1 UNL1 0.000
     4 C      -4.650940     1.755538     0.435153 C          1 UNL1 0.000
     5 C      -4.075611     2.911133     0.998150 C          1 UNL1 0.000
     6 C      -4.721359     4.151361     0.945141 C          1 UNL1 0.000
     7 N      -3.977901     0.478730     0.518394 N          1 UNL1 0.000
     8 C      -4.668956    -0.790139     0.580301 C          1 UNL1 0.000
     9 C      -5.957222    -0.908713     1.129275 C          1 UNL1 0.000
    10 C      -6.632826    -2.136346     1.155066 C          1 UNL1 0.000
    11 C      -6.027645    -3.292564     0.656749 C          1 UNL1 0.000
    12 C      -4.728827    -3.205817     0.155830 C          1 UNL1 0.000
    13 C      -4.063393    -1.974606     0.117434 C          1 UNL1 0.000
    14 C      -6.665295     5.601844     0.307296 C          1 UNL1 0.000
    15 C      -6.760351    -4.600515     0.678221 C          1 UNL1 0.000
    16 C      -2.544842     0.479711     0.443972 C          1 UNL1 0.000
    17 C      -1.774737     0.327142     1.627181 C          1 UNL1 0.000
    18 C      -0.362438     0.351294     1.653754 C          1 UNL1 0.000
    19 C       0.412807     0.506341     0.490567 C          1 UNL1 0.000
    20 C      -0.283155     0.638453    -0.743767 C          1 UNL1 0.000
    21 C      -1.796111     0.629987    -0.764886 C          1 UNL1 0.000
    22 N       0.252595     0.773013    -1.970107 N          1 UNL1 0.000
    23 S      -1.010202     0.865970    -3.038718 S          1 UNL1 0.000
    24 N      -2.298969     0.750957    -2.006889 N          1 UNL1 0.000
    25 H      -7.498448     3.216666    -0.771623 H          1 UNL1 0.000
    26 H      -6.343865     1.064391    -0.728357 H          1 UNL1 0.000
    27 H      -3.120146     2.862432     1.512115 H          1 UNL1 0.000
    28 H      -4.247988     5.016267     1.404564 H          1 UNL1 0.000
    29 H      -6.457861    -0.043423     1.556129 H          1 UNL1 0.000
    30 H      -7.638393    -2.179311     1.567796 H          1 UNL1 0.000
    31 H      -4.222386    -4.090477    -0.223620 H          1 UNL1 0.000
    32 H      -3.065317    -1.961291    -0.310997 H          1 UNL1 0.000
    33 H      -5.986757     6.392226    -0.030162 H          1 UNL1 0.000
    34 H      -7.022424     5.842635     1.313876 H          1 UNL1 0.000
    35 H      -7.526233     5.593833    -0.368841 H          1 UNL1 0.000
    36 H      -6.198424    -5.383035     0.157121 H          1 UNL1 0.000
    37 H      -7.728127    -4.500105     0.175962 H          1 UNL1 0.000
    38 H      -6.920969    -4.927047     1.710209 H          1 UNL1 0.000
    39 H      -2.306702     0.207937     2.572680 H          1 UNL1 0.000
    40 H       0.138622     0.252334     2.617453 H          1 UNL1 0.000
    41 C       1.856711     0.550487     0.534865 C          1 UNL1 0.000
    42 C       2.611917    -0.604595     0.527173 C          1 UNL1 0.000
    43 S       4.292030    -0.279110     0.594971 S          1 UNL1 0.000
    44 C       4.019795     1.409298     0.633061 C          1 UNL1 0.000
    45 C       2.677645     1.718036     0.596911 C          1 UNL1 0.000
    46 H       2.267666    -1.628874     0.477728 H          1 UNL1 0.000
    47 H       4.855711     2.093810     0.676678 H          1 UNL1 0.000
    48 H       2.303539     2.734729     0.608067 H          1 UNL1 0.000
@<TRIPOS>BOND
     1      1      2   2
     2      2      3   1
     3      3      4   2
     4      4      5   1
     5      5      6   2
     6      6      1   1
     7      4      7   1
     8      7      8   1
     9      8      9   2
    10      9     10   1
    11     10     11   2
    12     11     12   1
    13     12     13   2
    14     13      8   1
    15      1     14   1
    16     11     15   1
    17     16     17   2
    18     17     18   1
    19     18     19   2
    20     19     20   1
    21     20     21   1
    22     21     16   1
    23     20     22   2
    24     22     23   1
    25     23     24   1
    26     24     21   2
    27      7     16   1
    28      2     25   1
    29      3     26   1
    30      5     27   1
    31      6     28   1
    32      9     29   1
    33     10     30   1
    34     12     31   1
    35     13     32   1
    36     14     33   1
    37     14     34   1
    38     14     35   1
    39     15     36   1
    40     15     37   1
    41     15     38   1
    42     17     39   1
    43     18     40   1
    44     41     42   2
    45     42     43   1
    46     43     44   1
    47     44     45   2
    48     45     41   1
    49     42     46   1
    50     44     47   1
    51     45     48   1
    52     19     41   1
