# Produced with molli package
@<TRIPOS>MOLECULE
C_8_R
52 56 0 0 0
SMALL
USER_CHARGES

@<TRIPOS>ATOM
     1 C      -6.050399     4.345031     0.636930 C          1 UNL1 0.000
     2 C      -6.612285     3.204415     1.216782 C          1 UNL1 0.000
     3 C      -5.931740     1.980602     1.187391 C          1 UNL1 0.000
     4 C      -4.681267     1.854066     0.559760 C          1 UNL1 0.000
     5 C      -4.115623     3.021304     0.012605 C          1 UNL1 0.000
     6 C      -4.787526     4.248286     0.051055 C          1 UNL1 0.000
     7 N      -3.989620     0.588188     0.490944 N          1 UNL1 0.000
     8 C      -4.668817    -0.684888     0.405029 C          1 UNL1 0.000
     9 C      -5.918955    -0.823078    -0.219191 C          1 UNL1 0.000
    10 C      -6.574713    -2.060049    -0.272028 C          1 UNL1 0.000
    11 C      -5.981946    -3.203496     0.269755 C          1 UNL1 0.000
    12 C      -4.729317    -3.088595     0.875469 C          1 UNL1 0.000
    13 C      -4.082103    -1.849591     0.936955 C          1 UNL1 0.000
    14 C      -6.791086     5.648519     0.661389 C          1 UNL1 0.000
    15 C      -6.695139    -4.522488     0.254787 C          1 UNL1 0.000
    16 C      -2.557247     0.588901     0.412262 C          1 UNL1 0.000
    17 C      -1.782543     0.909650     1.554667 C          1 UNL1 0.000
    18 C      -0.368815     0.885854     1.575714 C          1 UNL1 0.000
    19 C       0.421290     0.539109     0.456908 C          1 UNL1 0.000
    20 C      -0.296877     0.243636    -0.737851 C          1 UNL1 0.000
    21 C      -1.808718     0.268562    -0.761247 C          1 UNL1 0.000
    22 N       0.233062    -0.076177    -1.933680 N          1 UNL1 0.000
    23 S      -1.031540    -0.274621    -2.985351 S          1 UNL1 0.000
    24 N      -2.313770    -0.015530    -1.974990 N          1 UNL1 0.000
    25 H      -7.587905     3.257217     1.694924 H          1 UNL1 0.000
    26 H      -6.394381     1.123673     1.670729 H          1 UNL1 0.000
    27 H      -3.149388     2.990985    -0.483967 H          1 UNL1 0.000
    28 H      -4.316518     5.121242    -0.395264 H          1 UNL1 0.000
    29 H      -6.395477     0.032055    -0.691929 H          1 UNL1 0.000
    30 H      -7.550569    -2.119668    -0.748631 H          1 UNL1 0.000
    31 H      -4.246915    -3.961245     1.309904 H          1 UNL1 0.000
    32 H      -3.115880    -1.806659     1.431571 H          1 UNL1 0.000
    33 H      -6.276217     6.412948     0.069706 H          1 UNL1 0.000
    34 H      -6.878263     6.014452     1.688943 H          1 UNL1 0.000
    35 H      -7.792319     5.522285     0.236420 H          1 UNL1 0.000
    36 H      -5.990881    -5.340772     0.070932 H          1 UNL1 0.000
    37 H      -7.449246    -4.556593    -0.538183 H          1 UNL1 0.000
    38 H      -7.190831    -4.689473     1.216316 H          1 UNL1 0.000
    39 H      -2.306841     1.168260     2.476356 H          1 UNL1 0.000
    40 H       0.134964     1.139127     2.510686 H          1 UNL1 0.000
    41 C       1.876431     0.495584     0.493280 C          1 UNL1 0.000
    42 N       2.489618     1.661793     0.827622 N          1 UNL1 0.000
    43 C       3.846163     1.678598     0.834401 C          1 UNL1 0.000
    44 C       4.614001     0.563264     0.548889 C          1 UNL1 0.000
    45 C       3.985151    -0.642287     0.244926 C          1 UNL1 0.000
    46 C       2.591847    -0.672572     0.216867 C          1 UNL1 0.000
    47 N       6.059494     0.661935     0.562245 N          1 UNL1 0.000
    48 O       6.691390    -0.101479    -0.176294 O          1 UNL1 0.000
    49 O       6.566356     1.504708     1.318821 O          1 UNL1 0.000
    50 H       4.287584     2.643991     1.070257 H          1 UNL1 0.000
    51 H       4.553242    -1.542950     0.027620 H          1 UNL1 0.000
    52 H       2.072527    -1.596093    -0.025097 H          1 UNL1 0.000
@<TRIPOS>BOND
     1      1      2   2
     2      2      3   1
     3      3      4   2
     4      4      5   1
     5      5      6   2
     6      6      1   1
     7      4      7   1
     8      7      8   1
     9      8      9   2
    10      9     10   1
    11     10     11   2
    12     11     12   1
    13     12     13   2
    14     13      8   1
    15      1     14   1
    16     11     15   1
    17     16     17   2
    18     17     18   1
    19     18     19   2
    20     19     20   1
    21     20     21   1
    22     21     16   1
    23     20     22   2
    24     22     23   1
    25     23     24   1
    26     24     21   2
    27      7     16   1
    28      2     25   1
    29      3     26   1
    30      5     27   1
    31      6     28   1
    32      9     29   1
    33     10     30   1
    34     12     31   1
    35     13     32   1
    36     14     33   1
    37     14     34   1
    38     14     35   1
    39     15     36   1
    40     15     37   1
    41     15     38   1
    42     17     39   1
    43     18     40   1
    44     41     42   2
    45     42     43   1
    46     43     44   2
    47     44     45   1
    48     45     46   2
    49     46     41   1
    50     47     48   2
    51     47     49   1
    52     44     47   1
    53     43     50   1
    54     45     51   1
    55     46     52   1
    56     19     41   1
