# Produced with molli package
@<TRIPOS>MOLECULE
C_8_Q
49 53 0 0 0
SMALL
USER_CHARGES

@<TRIPOS>ATOM
     1 C      -6.030067     4.356626     0.385290 C          1 UNL1 0.000
     2 C      -6.635764     3.235108    -0.187156 C          1 UNL1 0.000
     3 C      -6.003105     1.984329    -0.151098 C          1 UNL1 0.000
     4 C      -4.764174     1.809940     0.485321 C          1 UNL1 0.000
     5 C      -4.160798     2.956562     1.039855 C          1 UNL1 0.000
     6 C      -4.782286     4.208951     0.992757 C          1 UNL1 0.000
     7 N      -4.103372     0.525446     0.554965 N          1 UNL1 0.000
     8 C      -4.799212    -0.741202     0.607385 C          1 UNL1 0.000
     9 C      -6.089438    -0.863494     1.149282 C          1 UNL1 0.000
    10 C      -6.762293    -2.093289     1.167490 C          1 UNL1 0.000
    11 C      -6.150622    -3.248220     0.673184 C          1 UNL1 0.000
    12 C      -4.853310    -3.155825     0.170095 C          1 UNL1 0.000
    13 C      -4.191821    -1.922762     0.137246 C          1 UNL1 0.000
    14 C      -6.702920     5.696700     0.376019 C          1 UNL1 0.000
    15 C      -6.883409    -4.556319     0.679839 C          1 UNL1 0.000
    16 C      -2.669993     0.517815     0.484564 C          1 UNL1 0.000
    17 C      -1.902113     0.234669     1.640459 C          1 UNL1 0.000
    18 C      -0.488548     0.246597     1.664724 C          1 UNL1 0.000
    19 C       0.308355     0.544488     0.535129 C          1 UNL1 0.000
    20 C      -0.404289     0.805365    -0.668530 C          1 UNL1 0.000
    21 C      -1.916128     0.791540    -0.698426 C          1 UNL1 0.000
    22 N       0.132122     1.080046    -1.873607 N          1 UNL1 0.000
    23 S      -1.126918     1.250605    -2.936211 S          1 UNL1 0.000
    24 N      -2.415073     1.035610    -1.921641 N          1 UNL1 0.000
    25 H      -7.603587     3.322031    -0.675765 H          1 UNL1 0.000
    26 H      -6.488331     1.149039    -0.649487 H          1 UNL1 0.000
    27 H      -3.198372     2.890532     1.539229 H          1 UNL1 0.000
    28 H      -4.283889     5.066290     1.439670 H          1 UNL1 0.000
    29 H      -6.593778    -0.001183     1.577289 H          1 UNL1 0.000
    30 H      -7.770540    -2.139675     1.573329 H          1 UNL1 0.000
    31 H      -4.343674    -4.037239    -0.212595 H          1 UNL1 0.000
    32 H      -3.192623    -1.904813    -0.289641 H          1 UNL1 0.000
    33 H      -6.027278     6.459118    -0.025575 H          1 UNL1 0.000
    34 H      -6.993238     5.976418     1.394026 H          1 UNL1 0.000
    35 H      -7.603859     5.690242    -0.245726 H          1 UNL1 0.000
    36 H      -6.262954    -5.365940     0.280792 H          1 UNL1 0.000
    37 H      -7.782300    -4.487156     0.058742 H          1 UNL1 0.000
    38 H      -7.169334    -4.825962     1.701263 H          1 UNL1 0.000
    39 H      -2.431811     0.013699     2.569173 H          1 UNL1 0.000
    40 H       0.010607     0.023299     2.609609 H          1 UNL1 0.000
    41 C       1.762210     0.568012     0.574016 C          1 UNL1 0.000
    42 N       2.367377    -0.573303     0.994174 N          1 UNL1 0.000
    43 C       3.720994    -0.551509     1.009383 C          1 UNL1 0.000
    44 C       4.453270     0.571307     0.663000 C          1 UNL1 0.000
    45 N       3.867714     1.724710     0.276946 N          1 UNL1 0.000
    46 C       2.512136     1.692562     0.229347 C          1 UNL1 0.000
    47 H       4.207057    -1.473328     1.307079 H          1 UNL1 0.000
    48 H       5.536905     0.571756     0.685384 H          1 UNL1 0.000
    49 H       2.038858     2.616077    -0.087861 H          1 UNL1 0.000
@<TRIPOS>BOND
     1      1      2   2
     2      2      3   1
     3      3      4   2
     4      4      5   1
     5      5      6   2
     6      6      1   1
     7      4      7   1
     8      7      8   1
     9      8      9   2
    10      9     10   1
    11     10     11   2
    12     11     12   1
    13     12     13   2
    14     13      8   1
    15      1     14   1
    16     11     15   1
    17     16     17   2
    18     17     18   1
    19     18     19   2
    20     19     20   1
    21     20     21   1
    22     21     16   1
    23     20     22   2
    24     22     23   1
    25     23     24   1
    26     24     21   2
    27      7     16   1
    28      2     25   1
    29      3     26   1
    30      5     27   1
    31      6     28   1
    32      9     29   1
    33     10     30   1
    34     12     31   1
    35     13     32   1
    36     14     33   1
    37     14     34   1
    38     14     35   1
    39     15     36   1
    40     15     37   1
    41     15     38   1
    42     17     39   1
    43     18     40   1
    44     41     42   2
    45     42     43   1
    46     43     44   2
    47     44     45   1
    48     45     46   2
    49     46     41   1
    50     43     47   1
    51     44     48   1
    52     46     49   1
    53     19     41   1
