# Produced with molli package
@<TRIPOS>MOLECULE
C_9_P
54 57 0 0 0
SMALL
USER_CHARGES

@<TRIPOS>ATOM
     1 C      -5.196894     4.292158     1.409274 C          1 UNL1 0.000
     2 C      -5.759661     3.149045     0.836017 C          1 UNL1 0.000
     3 C      -5.103423     1.915646     0.922450 C          1 UNL1 0.000
     4 C      -3.877587     1.784513     1.597297 C          1 UNL1 0.000
     5 C      -3.313143     2.947928     2.149076 C          1 UNL1 0.000
     6 C      -3.968094     4.182359     2.065733 C          1 UNL1 0.000
     7 N      -3.221588     0.506783     1.721588 N          1 UNL1 0.000
     8 C      -3.953607    -0.731536     1.842471 C          1 UNL1 0.000
     9 C      -5.162148    -0.805734     2.553414 C          1 UNL1 0.000
    10 C      -5.863385    -2.012079     2.665395 C          1 UNL1 0.000
    11 C      -5.365270    -3.180980     2.081075 C          1 UNL1 0.000
    12 C      -4.162982    -3.122708     1.373480 C          1 UNL1 0.000
    13 C      -3.462972    -1.916865     1.264840 C          1 UNL1 0.000
    14 C      -5.912621     5.609192     1.365265 C          1 UNL1 0.000
    15 C      -6.137253    -4.462885     2.174570 C          1 UNL1 0.000
    16 C      -1.786406     0.450107     1.750932 C          1 UNL1 0.000
    17 C      -1.118745     0.102764     2.933352 C          1 UNL1 0.000
    18 C       0.268862    -0.010850     2.948633 C          1 UNL1 0.000
    19 C       0.995039     0.180901     1.771503 C          1 UNL1 0.000
    20 C       0.351274     0.505414     0.564983 C          1 UNL1 0.000
    21 C      -1.043159     0.672006     0.579415 C          1 UNL1 0.000
    22 H      -6.713356     3.204107     0.317092 H          1 UNL1 0.000
    23 H      -5.560278     1.052078     0.444501 H          1 UNL1 0.000
    24 H      -2.367659     2.901479     2.682698 H          1 UNL1 0.000
    25 H      -3.512546     5.055309     2.527521 H          1 UNL1 0.000
    26 H      -5.563658     0.076936     3.045453 H          1 UNL1 0.000
    27 H      -6.799833    -2.030972     3.217604 H          1 UNL1 0.000
    28 H      -3.757506    -4.012218     0.896997 H          1 UNL1 0.000
    29 H      -2.535073    -1.910003     0.698680 H          1 UNL1 0.000
    30 H      -5.225064     6.409244     1.072357 H          1 UNL1 0.000
    31 H      -6.332308     5.839710     2.349747 H          1 UNL1 0.000
    32 H      -6.730824     5.595576     0.637751 H          1 UNL1 0.000
    33 H      -5.503868    -5.325679     1.942234 H          1 UNL1 0.000
    34 H      -6.974341    -4.448105     1.469808 H          1 UNL1 0.000
    35 H      -6.523862    -4.605504     3.188878 H          1 UNL1 0.000
    36 H      -1.687502    -0.075403     3.842396 H          1 UNL1 0.000
    37 H       0.783205    -0.268900     3.870351 H          1 UNL1 0.000
    38 H       2.076861     0.063347     1.796525 H          1 UNL1 0.000
    39 H      -1.573719     0.906141    -0.341249 H          1 UNL1 0.000
    40 C       1.109842     0.595551    -0.692147 C          1 UNL1 0.000
    41 C       1.063259     1.745404    -1.497178 C          1 UNL1 0.000
    42 C       1.767650     1.804086    -2.703849 C          1 UNL1 0.000
    43 C       2.536945     0.717400    -3.109030 C          1 UNL1 0.000
    44 C       2.579389    -0.442775    -2.342806 C          1 UNL1 0.000
    45 C       1.876115    -0.497702    -1.137438 C          1 UNL1 0.000
    46 O       3.182922     0.781938    -4.312269 O          1 UNL1 0.000
    47 C       4.582376     0.973074    -4.116072 C          1 UNL1 0.000
    48 H       0.472882     2.605466    -1.188391 H          1 UNL1 0.000
    49 H       1.714055     2.693602    -3.324034 H          1 UNL1 0.000
    50 H       3.139533    -1.308105    -2.684088 H          1 UNL1 0.000
    51 H       1.906014    -1.415571    -0.554260 H          1 UNL1 0.000
    52 H       5.055221     1.025239    -5.101318 H          1 UNL1 0.000
    53 H       5.033605     0.137220    -3.571450 H          1 UNL1 0.000
    54 H       4.777724     1.916917    -3.595735 H          1 UNL1 0.000
@<TRIPOS>BOND
     1      1      2   2
     2      2      3   1
     3      3      4   2
     4      4      5   1
     5      5      6   2
     6      6      1   1
     7      4      7   1
     8      7      8   1
     9      8      9   2
    10      9     10   1
    11     10     11   2
    12     11     12   1
    13     12     13   2
    14     13      8   1
    15      1     14   1
    16     11     15   1
    17     16     17   2
    18     17     18   1
    19     18     19   2
    20     19     20   1
    21     20     21   2
    22     21     16   1
    23      7     16   1
    24      2     22   1
    25      3     23   1
    26      5     24   1
    27      6     25   1
    28      9     26   1
    29     10     27   1
    30     12     28   1
    31     13     29   1
    32     14     30   1
    33     14     31   1
    34     14     32   1
    35     15     33   1
    36     15     34   1
    37     15     35   1
    38     17     36   1
    39     18     37   1
    40     19     38   1
    41     21     39   1
    42     40     41   2
    43     41     42   1
    44     42     43   2
    45     43     44   1
    46     44     45   2
    47     45     40   1
    48     46     47   1
    49     43     46   1
    50     41     48   1
    51     42     49   1
    52     44     50   1
    53     45     51   1
    54     47     52   1
    55     47     53   1
    56     47     54   1
    57     20     40   1
