# Produced with molli package
@<TRIPOS>MOLECULE
C_9_N
47 50 0 0 0
SMALL
USER_CHARGES

@<TRIPOS>ATOM
     1 C      -5.289624     4.272550     1.620779 C          1 UNL1 0.000
     2 C      -5.841959     3.136934     1.023554 C          1 UNL1 0.000
     3 C      -5.171533     1.907756     1.074954 C          1 UNL1 0.000
     4 C      -3.943139     1.771001     1.743159 C          1 UNL1 0.000
     5 C      -3.389859     2.930953     2.316345 C          1 UNL1 0.000
     6 C      -4.054374     4.161279     2.262638 C          1 UNL1 0.000
     7 N      -3.256143     0.502338     1.823584 N          1 UNL1 0.000
     8 C      -3.941298    -0.770147     1.878406 C          1 UNL1 0.000
     9 C      -5.210138    -0.904184     2.466586 C          1 UNL1 0.000
    10 C      -5.874864    -2.137220     2.495465 C          1 UNL1 0.000
    11 C      -5.282551    -3.278307     1.947818 C          1 UNL1 0.000
    12 C      -4.002707    -3.173777     1.401948 C          1 UNL1 0.000
    13 C      -3.344831    -1.939125     1.368232 C          1 UNL1 0.000
    14 C      -6.006074     5.589656     1.598415 C          1 UNL1 0.000
    15 C      -5.991422    -4.598703     1.993745 C          1 UNL1 0.000
    16 C      -1.819085     0.504912     1.821686 C          1 UNL1 0.000
    17 C      -1.109002     0.318483     3.017301 C          1 UNL1 0.000
    18 C       0.285984     0.311271     3.014488 C          1 UNL1 0.000
    19 C       0.980892     0.451308     1.811792 C          1 UNL1 0.000
    20 C       0.281688     0.605530     0.609459 C          1 UNL1 0.000
    21 C      -1.115543     0.661262     0.618107 C          1 UNL1 0.000
    22 H      -6.797986     3.195127     0.508294 H          1 UNL1 0.000
    23 H      -5.619699     1.056091     0.569095 H          1 UNL1 0.000
    24 H      -2.437481     2.890067     2.838045 H          1 UNL1 0.000
    25 H      -3.599138     5.030208     2.732700 H          1 UNL1 0.000
    26 H      -5.695688    -0.048602     2.929238 H          1 UNL1 0.000
    27 H      -6.859661    -2.197357     2.953395 H          1 UNL1 0.000
    28 H      -3.504011    -4.048353     0.990386 H          1 UNL1 0.000
    29 H      -2.357408    -1.906607     0.915834 H          1 UNL1 0.000
    30 H      -5.352942     6.370652     1.195689 H          1 UNL1 0.000
    31 H      -6.313353     5.866333     2.612223 H          1 UNL1 0.000
    32 H      -6.902494     5.549137     0.971209 H          1 UNL1 0.000
    33 H      -5.535995    -5.318348     1.304940 H          1 UNL1 0.000
    34 H      -7.038677    -4.481340     1.696408 H          1 UNL1 0.000
    35 H      -5.948636    -5.013544     3.005364 H          1 UNL1 0.000
    36 H      -1.650856     0.191878     3.951505 H          1 UNL1 0.000
    37 H       0.830204     0.181525     3.946143 H          1 UNL1 0.000
    38 H       2.068036     0.416035     1.814789 H          1 UNL1 0.000
    39 H      -1.668164     0.788000    -0.309897 H          1 UNL1 0.000
    40 C       1.004421     0.658788    -0.647833 C          1 UNL1 0.000
    41 C       1.040911    -0.435762    -1.489466 C          1 UNL1 0.000
    42 S       1.966764    -0.140886    -2.898272 S          1 UNL1 0.000
    43 C       2.327133     1.452973    -2.391764 C          1 UNL1 0.000
    44 C       1.757711     1.751866    -1.172627 C          1 UNL1 0.000
    45 H       0.573781    -1.401371    -1.346696 H          1 UNL1 0.000
    46 H       2.939663     2.092301    -3.012084 H          1 UNL1 0.000
    47 H       1.870244     2.712030    -0.684441 H          1 UNL1 0.000
@<TRIPOS>BOND
     1      1      2   2
     2      2      3   1
     3      3      4   2
     4      4      5   1
     5      5      6   2
     6      6      1   1
     7      4      7   1
     8      7      8   1
     9      8      9   2
    10      9     10   1
    11     10     11   2
    12     11     12   1
    13     12     13   2
    14     13      8   1
    15      1     14   1
    16     11     15   1
    17     16     17   2
    18     17     18   1
    19     18     19   2
    20     19     20   1
    21     20     21   2
    22     21     16   1
    23      7     16   1
    24      2     22   1
    25      3     23   1
    26      5     24   1
    27      6     25   1
    28      9     26   1
    29     10     27   1
    30     12     28   1
    31     13     29   1
    32     14     30   1
    33     14     31   1
    34     14     32   1
    35     15     33   1
    36     15     34   1
    37     15     35   1
    38     17     36   1
    39     18     37   1
    40     19     38   1
    41     21     39   1
    42     40     41   2
    43     41     42   1
    44     42     43   1
    45     43     44   2
    46     44     40   1
    47     41     45   1
    48     43     46   1
    49     44     47   1
    50     20     40   1
