# Produced with molli package
@<TRIPOS>MOLECULE
C_9_S
55 58 0 0 0
SMALL
USER_CHARGES

@<TRIPOS>ATOM
     1 C      -5.243305     4.337743     1.640324 C          1 UNL1 0.000
     2 C      -5.880546     3.194839     1.153845 C          1 UNL1 0.000
     3 C      -5.214044     1.960706     1.129638 C          1 UNL1 0.000
     4 C      -3.907828     1.818176     1.627381 C          1 UNL1 0.000
     5 C      -3.267534     2.994595     2.065820 C          1 UNL1 0.000
     6 C      -3.921849     4.232242     2.074713 C          1 UNL1 0.000
     7 N      -3.229321     0.538695     1.671275 N          1 UNL1 0.000
     8 C      -3.903787    -0.740790     1.783097 C          1 UNL1 0.000
     9 C      -5.171180    -0.879945     2.372278 C          1 UNL1 0.000
    10 C      -5.822165    -2.121254     2.429541 C          1 UNL1 0.000
    11 C      -5.208409    -3.272743     1.930521 C          1 UNL1 0.000
    12 C      -3.921743    -3.168739     1.404387 C          1 UNL1 0.000
    13 C      -3.284964    -1.924244     1.330199 C          1 UNL1 0.000
    14 C      -5.947713     5.659894     1.701720 C          1 UNL1 0.000
    15 C      -5.912014    -4.595438     1.988211 C          1 UNL1 0.000
    16 C      -1.789382     0.533015     1.662560 C          1 UNL1 0.000
    17 C      -1.081598     0.414319     2.867746 C          1 UNL1 0.000
    18 C       0.310231     0.385306     2.862700 C          1 UNL1 0.000
    19 C       1.001090     0.434693     1.650827 C          1 UNL1 0.000
    20 C       0.314902     0.530120     0.428542 C          1 UNL1 0.000
    21 C      -1.085206     0.608360     0.448761 C          1 UNL1 0.000
    22 H      -6.903426     3.248965     0.787930 H          1 UNL1 0.000
    23 H      -5.739388     1.110091     0.703622 H          1 UNL1 0.000
    24 H      -2.245153     2.969211     2.432888 H          1 UNL1 0.000
    25 H      -3.390037     5.109756     2.435921 H          1 UNL1 0.000
    26 H      -5.674427    -0.024611     2.814601 H          1 UNL1 0.000
    27 H      -6.814593    -2.178885     2.871430 H          1 UNL1 0.000
    28 H      -3.400921    -4.049798     1.036648 H          1 UNL1 0.000
    29 H      -2.290548    -1.899622     0.893020 H          1 UNL1 0.000
    30 H      -5.424970     6.397573     1.084742 H          1 UNL1 0.000
    31 H      -5.982866     6.017965     2.736251 H          1 UNL1 0.000
    32 H      -6.978126     5.584718     1.339688 H          1 UNL1 0.000
    33 H      -5.364188    -5.364094     1.432306 H          1 UNL1 0.000
    34 H      -6.907804    -4.514571     1.540058 H          1 UNL1 0.000
    35 H      -6.008515    -4.928362     3.026013 H          1 UNL1 0.000
    36 H      -1.623885     0.356955     3.808274 H          1 UNL1 0.000
    37 H       0.856458     0.312035     3.799157 H          1 UNL1 0.000
    38 H       2.088797     0.391176     1.660344 H          1 UNL1 0.000
    39 H      -1.643023     0.680215    -0.482724 H          1 UNL1 0.000
    40 C       1.056019     0.500412    -0.835370 C          1 UNL1 0.000
    41 C       1.280398     1.667334    -1.574290 C          1 UNL1 0.000
    42 C       2.038027     1.630325    -2.750498 C          1 UNL1 0.000
    43 C       2.580605     0.424035    -3.216162 C          1 UNL1 0.000
    44 C       2.330446    -0.751407    -2.502280 C          1 UNL1 0.000
    45 C       1.581071    -0.708290    -1.319990 C          1 UNL1 0.000
    46 C       3.410817     0.455430    -4.458814 C          1 UNL1 0.000
    47 C       4.119087    -0.790751    -4.925477 C          1 UNL1 0.000
    48 O       3.497098     1.499843    -5.104973 O          1 UNL1 0.000
    49 H       0.880627     2.619099    -1.229395 H          1 UNL1 0.000
    50 H       2.210036     2.555839    -3.297988 H          1 UNL1 0.000
    51 H       2.702557    -1.715780    -2.832815 H          1 UNL1 0.000
    52 H       1.407508    -1.631748    -0.768974 H          1 UNL1 0.000
    53 H       3.473110    -1.341739    -5.613354 H          1 UNL1 0.000
    54 H       4.425885    -1.430678    -4.096449 H          1 UNL1 0.000
    55 H       5.035905    -0.497851    -5.447588 H          1 UNL1 0.000
@<TRIPOS>BOND
     1      1      2   2
     2      2      3   1
     3      3      4   2
     4      4      5   1
     5      5      6   2
     6      6      1   1
     7      4      7   1
     8      7      8   1
     9      8      9   2
    10      9     10   1
    11     10     11   2
    12     11     12   1
    13     12     13   2
    14     13      8   1
    15      1     14   1
    16     11     15   1
    17     16     17   2
    18     17     18   1
    19     18     19   2
    20     19     20   1
    21     20     21   2
    22     21     16   1
    23      7     16   1
    24      2     22   1
    25      3     23   1
    26      5     24   1
    27      6     25   1
    28      9     26   1
    29     10     27   1
    30     12     28   1
    31     13     29   1
    32     14     30   1
    33     14     31   1
    34     14     32   1
    35     15     33   1
    36     15     34   1
    37     15     35   1
    38     17     36   1
    39     18     37   1
    40     19     38   1
    41     21     39   1
    42     40     41   2
    43     41     42   1
    44     42     43   2
    45     43     44   1
    46     44     45   2
    47     45     40   1
    48     43     46   1
    49     46     47   1
    50     46     48   2
    51     41     49   1
    52     42     50   1
    53     44     51   1
    54     45     52   1
    55     47     53   1
    56     47     54   1
    57     47     55   1
    58     20     40   1
