# Produced with molli package
@<TRIPOS>MOLECULE
C_9_M
51 54 0 0 0
SMALL
USER_CHARGES

@<TRIPOS>ATOM
     1 C      -5.165292     4.269431     1.954530 C          1 UNL1 0.000
     2 C      -5.850207     3.117625     2.346121 C          1 UNL1 0.000
     3 C      -5.220284     1.862142     2.322294 C          1 UNL1 0.000
     4 C      -3.905710     1.702552     1.856113 C          1 UNL1 0.000
     5 C      -3.219180     2.891275     1.522036 C          1 UNL1 0.000
     6 C      -3.830315     4.150439     1.577055 C          1 UNL1 0.000
     7 N      -3.244273     0.411476     1.753343 N          1 UNL1 0.000
     8 C      -3.912918    -0.878320     1.718091 C          1 UNL1 0.000
     9 C      -5.232993    -1.048207     1.271772 C          1 UNL1 0.000
    10 C      -5.880019    -2.293805     1.334216 C          1 UNL1 0.000
    11 C      -5.201861    -3.429883     1.779894 C          1 UNL1 0.000
    12 C      -3.865891    -3.301996     2.152824 C          1 UNL1 0.000
    13 C      -3.236526    -2.051876     2.117455 C          1 UNL1 0.000
    14 C      -5.841443     5.607213     1.980781 C          1 UNL1 0.000
    15 C      -5.899247    -4.750038     1.916804 C          1 UNL1 0.000
    16 C      -1.801985     0.407854     1.743347 C          1 UNL1 0.000
    17 C      -1.091335     0.460350     2.951777 C          1 UNL1 0.000
    18 C       0.300724     0.440370     2.945932 C          1 UNL1 0.000
    19 C       0.990476     0.401690     1.732544 C          1 UNL1 0.000
    20 C       0.301975     0.377835     0.508376 C          1 UNL1 0.000
    21 C      -1.100362     0.361464     0.526681 C          1 UNL1 0.000
    22 H      -6.883586     3.184821     2.679975 H          1 UNL1 0.000
    23 H      -5.788064     1.017506     2.699381 H          1 UNL1 0.000
    24 H      -2.181201     2.866096     1.201769 H          1 UNL1 0.000
    25 H      -3.249363     5.030529     1.310900 H          1 UNL1 0.000
    26 H      -5.792221    -0.215836     0.855160 H          1 UNL1 0.000
    27 H      -6.921666    -2.363586     1.028141 H          1 UNL1 0.000
    28 H      -3.300794    -4.168706     2.488477 H          1 UNL1 0.000
    29 H      -2.197770    -2.019255     2.433965 H          1 UNL1 0.000
    30 H      -5.241761     6.366831     1.467308 H          1 UNL1 0.000
    31 H      -5.997211     5.933393     3.013403 H          1 UNL1 0.000
    32 H      -6.807787     5.554886     1.468377 H          1 UNL1 0.000
    33 H      -5.226189    -5.573863     1.656200 H          1 UNL1 0.000
    34 H      -6.766520    -4.812520     1.252107 H          1 UNL1 0.000
    35 H      -6.238420    -4.885509     2.949100 H          1 UNL1 0.000
    36 H      -1.632386     0.496828     3.894097 H          1 UNL1 0.000
    37 H       0.848593     0.461800     3.884104 H          1 UNL1 0.000
    38 H       2.078993     0.405957     1.743509 H          1 UNL1 0.000
    39 H      -1.660471     0.334857    -0.405864 H          1 UNL1 0.000
    40 C       1.042406     0.400046    -0.755984 C          1 UNL1 0.000
    41 C       1.146502     1.585869    -1.500496 C          1 UNL1 0.000
    42 C       1.887769     1.625358    -2.685760 C          1 UNL1 0.000
    43 C       2.532551     0.474276    -3.146542 C          1 UNL1 0.000
    44 C       2.427677    -0.715107    -2.419354 C          1 UNL1 0.000
    45 C       1.688717    -0.749801    -1.232206 C          1 UNL1 0.000
    46 C       3.303415     0.514945    -4.354302 C          1 UNL1 0.000
    47 N       3.931582     0.549056    -5.330256 N          1 UNL1 0.000
    48 H       0.658981     2.493789    -1.148518 H          1 UNL1 0.000
    49 H       1.961591     2.560269    -3.238305 H          1 UNL1 0.000
    50 H       2.922040    -1.620628    -2.766047 H          1 UNL1 0.000
    51 H       1.619284    -1.682399    -0.674785 H          1 UNL1 0.000
@<TRIPOS>BOND
     1      1      2   2
     2      2      3   1
     3      3      4   2
     4      4      5   1
     5      5      6   2
     6      6      1   1
     7      4      7   1
     8      7      8   1
     9      8      9   2
    10      9     10   1
    11     10     11   2
    12     11     12   1
    13     12     13   2
    14     13      8   1
    15      1     14   1
    16     11     15   1
    17     16     17   2
    18     17     18   1
    19     18     19   2
    20     19     20   1
    21     20     21   2
    22     21     16   1
    23      7     16   1
    24      2     22   1
    25      3     23   1
    26      5     24   1
    27      6     25   1
    28      9     26   1
    29     10     27   1
    30     12     28   1
    31     13     29   1
    32     14     30   1
    33     14     31   1
    34     14     32   1
    35     15     33   1
    36     15     34   1
    37     15     35   1
    38     17     36   1
    39     18     37   1
    40     19     38   1
    41     21     39   1
    42     40     41   2
    43     41     42   1
    44     42     43   2
    45     43     44   1
    46     44     45   2
    47     45     40   1
    48     46     47   3
    49     43     46   1
    50     41     48   1
    51     42     49   1
    52     44     50   1
    53     45     51   1
    54     20     40   1
