# Produced with molli package
@<TRIPOS>MOLECULE
C_9_L
54 58 0 0 0
SMALL
USER_CHARGES

@<TRIPOS>ATOM
     1 C      -5.158314     4.302933     1.887061 C          1 UNL1 0.000
     2 C      -5.773368     3.165722     2.416469 C          1 UNL1 0.000
     3 C      -5.124560     1.923634     2.387837 C          1 UNL1 0.000
     4 C      -3.857936     1.769802     1.799513 C          1 UNL1 0.000
     5 C      -3.239782     2.935982     1.307084 C          1 UNL1 0.000
     6 C      -3.878100     4.181500     1.346660 C          1 UNL1 0.000
     7 N      -3.193569     0.485087     1.721791 N          1 UNL1 0.000
     8 C      -3.893723    -0.780860     1.665694 C          1 UNL1 0.000
     9 C      -5.174164    -0.902159     1.099415 C          1 UNL1 0.000
    10 C      -5.866304    -2.121280     1.103764 C          1 UNL1 0.000
    11 C      -5.281695    -3.267900     1.645073 C          1 UNL1 0.000
    12 C      -3.986130    -3.181681     2.156734 C          1 UNL1 0.000
    13 C      -3.304284    -1.959364     2.162676 C          1 UNL1 0.000
    14 C      -5.870894     5.622090     1.896613 C          1 UNL1 0.000
    15 C      -6.018127    -4.573050     1.689334 C          1 UNL1 0.000
    16 C      -1.755202     0.466734     1.734112 C          1 UNL1 0.000
    17 C      -1.058776     0.589345     2.944927 C          1 UNL1 0.000
    18 C       0.334128     0.564081     2.958083 C          1 UNL1 0.000
    19 C       1.039651     0.456319     1.757913 C          1 UNL1 0.000
    20 C       0.365041     0.366073     0.529987 C          1 UNL1 0.000
    21 C      -1.037458     0.344633     0.533425 C          1 UNL1 0.000
    22 H      -6.764852     3.235418     2.858477 H          1 UNL1 0.000
    23 H      -5.626959     1.076349     2.847053 H          1 UNL1 0.000
    24 H      -2.249709     2.893188     0.861297 H          1 UNL1 0.000
    25 H      -3.363478     5.049929     0.941981 H          1 UNL1 0.000
    26 H      -5.655024    -0.045025     0.635088 H          1 UNL1 0.000
    27 H      -6.866891    -2.160980     0.679401 H          1 UNL1 0.000
    28 H      -3.496738    -4.062585     2.566219 H          1 UNL1 0.000
    29 H      -2.304616    -1.944641     2.588263 H          1 UNL1 0.000
    30 H      -5.244534     6.419903     1.483509 H          1 UNL1 0.000
    31 H      -6.138544     5.902439     2.920116 H          1 UNL1 0.000
    32 H      -6.779825     5.561946     1.289141 H          1 UNL1 0.000
    33 H      -5.463114    -5.341133     1.141505 H          1 UNL1 0.000
    34 H      -7.012712    -4.489743     1.239507 H          1 UNL1 0.000
    35 H      -6.146424    -4.895145     2.728221 H          1 UNL1 0.000
    36 H      -1.609965     0.687287     3.876709 H          1 UNL1 0.000
    37 H       0.870766     0.641505     3.899729 H          1 UNL1 0.000
    38 H       2.127973     0.465408     1.778850 H          1 UNL1 0.000
    39 H      -1.583099     0.266984    -0.404849 H          1 UNL1 0.000
    40 C       1.114072     0.354197    -0.730079 C          1 UNL1 0.000
    41 C       1.216103     1.526845    -1.494341 C          1 UNL1 0.000
    42 C       1.945480     1.572147    -2.687598 C          1 UNL1 0.000
    43 C       2.574931     0.395365    -3.100985 C          1 UNL1 0.000
    44 C       2.495729    -0.795009    -2.377995 C          1 UNL1 0.000
    45 C       1.756302    -0.813840    -1.177636 C          1 UNL1 0.000
    46 N       3.350989     0.145030    -4.209543 N          1 UNL1 0.000
    47 C       3.761914    -1.160781    -4.216263 C          1 UNL1 0.000
    48 C       3.245541    -1.768931    -3.093835 C          1 UNL1 0.000
    49 H       0.725226     2.436003    -1.149597 H          1 UNL1 0.000
    50 H       2.018078     2.490736    -3.260475 H          1 UNL1 0.000
    51 H       1.685916    -1.732873    -0.602084 H          1 UNL1 0.000
    52 H       3.580951     0.833297    -4.914515 H          1 UNL1 0.000
    53 H       4.382749    -1.543541    -5.014397 H          1 UNL1 0.000
    54 H       3.391267    -2.803582    -2.813984 H          1 UNL1 0.000
@<TRIPOS>BOND
     1      1      2   2
     2      2      3   1
     3      3      4   2
     4      4      5   1
     5      5      6   2
     6      6      1   1
     7      4      7   1
     8      7      8   1
     9      8      9   2
    10      9     10   1
    11     10     11   2
    12     11     12   1
    13     12     13   2
    14     13      8   1
    15      1     14   1
    16     11     15   1
    17     16     17   2
    18     17     18   1
    19     18     19   2
    20     19     20   1
    21     20     21   2
    22     21     16   1
    23      7     16   1
    24      2     22   1
    25      3     23   1
    26      5     24   1
    27      6     25   1
    28      9     26   1
    29     10     27   1
    30     12     28   1
    31     13     29   1
    32     14     30   1
    33     14     31   1
    34     14     32   1
    35     15     33   1
    36     15     34   1
    37     15     35   1
    38     17     36   1
    39     18     37   1
    40     19     38   1
    41     21     39   1
    42     40     41   2
    43     41     42   1
    44     42     43   2
    45     43     44   1
    46     44     45   2
    47     45     40   1
    48     43     46   1
    49     46     47   1
    50     47     48   2
    51     48     44   1
    52     41     49   1
    53     42     50   1
    54     45     51   1
    55     46     52   1
    56     47     53   1
    57     48     54   1
    58     20     40   1
