# Produced with molli package
@<TRIPOS>MOLECULE
C_9_Q
48 51 0 0 0
SMALL
USER_CHARGES

@<TRIPOS>ATOM
     1 C      -5.205190     4.370476     1.477299 C          1 UNL1 0.000
     2 C      -5.784774     3.231286     0.914132 C          1 UNL1 0.000
     3 C      -5.126746     1.996388     0.971644 C          1 UNL1 0.000
     4 C      -3.884050     1.857291     1.613240 C          1 UNL1 0.000
     5 C      -3.304172     3.018994     2.153838 C          1 UNL1 0.000
     6 C      -3.957516     4.255374     2.094993 C          1 UNL1 0.000
     7 N      -3.219368     0.579471     1.708038 N          1 UNL1 0.000
     8 C      -3.932722    -0.674831     1.795651 C          1 UNL1 0.000
     9 C      -5.169018    -0.779590     2.453603 C          1 UNL1 0.000
    10 C      -5.854972    -1.998887     2.521673 C          1 UNL1 0.000
    11 C      -5.313869    -3.153623     1.948480 C          1 UNL1 0.000
    12 C      -4.074689    -3.071591     1.311608 C          1 UNL1 0.000
    13 C      -3.394029    -1.851436     1.241613 C          1 UNL1 0.000
    14 C      -5.914824     5.691219     1.457083 C          1 UNL1 0.000
    15 C      -6.063997    -4.450488     2.009995 C          1 UNL1 0.000
    16 C      -1.782834     0.541873     1.736288 C          1 UNL1 0.000
    17 C      -1.109862     0.248024     2.930323 C          1 UNL1 0.000
    18 C       0.279474     0.155993     2.948926 C          1 UNL1 0.000
    19 C       1.001907     0.308301     1.763546 C          1 UNL1 0.000
    20 C       0.351518     0.577489     0.546449 C          1 UNL1 0.000
    21 C      -1.043964     0.734759     0.557523 C          1 UNL1 0.000
    22 H      -6.752722     3.290952     0.421969 H          1 UNL1 0.000
    23 H      -5.597137     1.140061     0.494493 H          1 UNL1 0.000
    24 H      -2.340605     2.974106     2.654718 H          1 UNL1 0.000
    25 H      -3.483263     5.126159     2.542139 H          1 UNL1 0.000
    26 H      -5.608884     0.088515     2.938330 H          1 UNL1 0.000
    27 H      -6.815548    -2.038815     3.030486 H          1 UNL1 0.000
    28 H      -3.625727    -3.952289     0.858196 H          1 UNL1 0.000
    29 H      -2.438884    -1.830667     0.723611 H          1 UNL1 0.000
    30 H      -5.239409     6.482702     1.116272 H          1 UNL1 0.000
    31 H      -6.277206     5.936526     2.460598 H          1 UNL1 0.000
    32 H      -6.773068     5.674342     0.777395 H          1 UNL1 0.000
    33 H      -5.479370    -5.272751     1.583817 H          1 UNL1 0.000
    34 H      -6.997462    -4.371874     1.443665 H          1 UNL1 0.000
    35 H      -6.292135    -4.708003     3.049108 H          1 UNL1 0.000
    36 H      -1.676252     0.101479     3.846591 H          1 UNL1 0.000
    37 H       0.797879    -0.049606     3.881809 H          1 UNL1 0.000
    38 H       2.086453     0.215258     1.795714 H          1 UNL1 0.000
    39 H      -1.571879     0.949466    -0.370260 H          1 UNL1 0.000
    40 C       1.097354     0.629581    -0.712513 C          1 UNL1 0.000
    41 N       0.993549     1.767242    -1.445355 N          1 UNL1 0.000
    42 C       1.685439     1.783598    -2.610192 C          1 UNL1 0.000
    43 C       2.443393     0.709090    -3.044896 C          1 UNL1 0.000
    44 N       2.549948    -0.434917    -2.335195 N          1 UNL1 0.000
    45 C       1.861306    -0.447407    -1.165834 C          1 UNL1 0.000
    46 H       1.613266     2.695219    -3.190447 H          1 UNL1 0.000
    47 H       2.987040     0.739591    -3.981527 H          1 UNL1 0.000
    48 H       1.927916    -1.370433    -0.600624 H          1 UNL1 0.000
@<TRIPOS>BOND
     1      1      2   2
     2      2      3   1
     3      3      4   2
     4      4      5   1
     5      5      6   2
     6      6      1   1
     7      4      7   1
     8      7      8   1
     9      8      9   2
    10      9     10   1
    11     10     11   2
    12     11     12   1
    13     12     13   2
    14     13      8   1
    15      1     14   1
    16     11     15   1
    17     16     17   2
    18     17     18   1
    19     18     19   2
    20     19     20   1
    21     20     21   2
    22     21     16   1
    23      7     16   1
    24      2     22   1
    25      3     23   1
    26      5     24   1
    27      6     25   1
    28      9     26   1
    29     10     27   1
    30     12     28   1
    31     13     29   1
    32     14     30   1
    33     14     31   1
    34     14     32   1
    35     15     33   1
    36     15     34   1
    37     15     35   1
    38     17     36   1
    39     18     37   1
    40     19     38   1
    41     21     39   1
    42     40     41   2
    43     41     42   1
    44     42     43   2
    45     43     44   1
    46     44     45   2
    47     45     40   1
    48     42     46   1
    49     43     47   1
    50     45     48   1
    51     20     40   1
