# Produced with molli package
@<TRIPOS>MOLECULE
C_9_R
51 54 0 0 0
SMALL
USER_CHARGES

@<TRIPOS>ATOM
     1 C      -5.196234     4.301890     1.630794 C          1 UNL1 0.000
     2 C      -5.793284     3.179822     1.051229 C          1 UNL1 0.000
     3 C      -5.137710     1.939570     1.053105 C          1 UNL1 0.000
     4 C      -3.887970     1.770896     1.671215 C          1 UNL1 0.000
     5 C      -3.289882     2.922656     2.219934 C          1 UNL1 0.000
     6 C      -3.933504     4.165095     2.207598 C          1 UNL1 0.000
     7 N      -3.218580     0.488936     1.728789 N          1 UNL1 0.000
     8 C      -3.900172    -0.789536     1.817303 C          1 UNL1 0.000
     9 C      -5.215337    -0.917966     2.293248 C          1 UNL1 0.000
    10 C      -5.859632    -2.163784     2.348563 C          1 UNL1 0.000
    11 C      -5.196974    -3.329233     1.956422 C          1 UNL1 0.000
    12 C      -3.870478    -3.233407     1.540196 C          1 UNL1 0.000
    13 C      -3.239640    -1.985921     1.465679 C          1 UNL1 0.000
    14 C      -5.904136     5.622725     1.681266 C          1 UNL1 0.000
    15 C      -5.876709    -4.662903     2.041136 C          1 UNL1 0.000
    16 C      -1.778751     0.484218     1.748132 C          1 UNL1 0.000
    17 C      -1.092862     0.344942     2.963561 C          1 UNL1 0.000
    18 C       0.297825     0.297780     2.981223 C          1 UNL1 0.000
    19 C       1.008452     0.339871     1.780300 C          1 UNL1 0.000
    20 C       0.345241     0.450020     0.544481 C          1 UNL1 0.000
    21 C      -1.053766     0.561999     0.547144 C          1 UNL1 0.000
    22 H      -6.774253     3.257892     0.587930 H          1 UNL1 0.000
    23 H      -5.620975     1.105849     0.550532 H          1 UNL1 0.000
    24 H      -2.312484     2.870778     2.691617 H          1 UNL1 0.000
    25 H      -3.438633     5.021459     2.660319 H          1 UNL1 0.000
    26 H      -5.763952    -0.052359     2.653379 H          1 UNL1 0.000
    27 H      -6.885027    -2.213084     2.708690 H          1 UNL1 0.000
    28 H      -3.311991    -4.124697     1.263496 H          1 UNL1 0.000
    29 H      -2.210528    -1.972460     1.117657 H          1 UNL1 0.000
    30 H      -5.217433     6.436798     1.426185 H          1 UNL1 0.000
    31 H      -6.301225     5.794493     2.687054 H          1 UNL1 0.000
    32 H      -6.735424     5.658492     0.970025 H          1 UNL1 0.000
    33 H      -5.381088    -5.399915     1.399697 H          1 UNL1 0.000
    34 H      -6.916033    -4.588116     1.704998 H          1 UNL1 0.000
    35 H      -5.857726    -5.030496     3.071550 H          1 UNL1 0.000
    36 H      -1.651966     0.286271     3.894146 H          1 UNL1 0.000
    37 H       0.827305     0.215578     3.926547 H          1 UNL1 0.000
    38 H       2.095234     0.286713     1.811927 H          1 UNL1 0.000
    39 H      -1.593112     0.657283    -0.393600 H          1 UNL1 0.000
    40 C       1.094916     0.391363    -0.714314 C          1 UNL1 0.000
    41 N       0.995869     1.471376    -1.529676 N          1 UNL1 0.000
    42 C       1.705927     1.454201    -2.687142 C          1 UNL1 0.000
    43 C       2.506655     0.388867    -3.067803 C          1 UNL1 0.000
    44 C       2.587871    -0.728713    -2.239466 C          1 UNL1 0.000
    45 C       1.870185    -0.724177    -1.044627 C          1 UNL1 0.000
    46 N       3.255169     0.453187    -4.311842 N          1 UNL1 0.000
    47 O       2.934217     1.317549    -5.134996 O          1 UNL1 0.000
    48 O       4.174183    -0.366534    -4.467923 O          1 UNL1 0.000
    49 H       1.603735     2.352301    -3.291133 H          1 UNL1 0.000
    50 H       3.192660    -1.593021    -2.503296 H          1 UNL1 0.000
    51 H       1.909381    -1.584434    -0.381888 H          1 UNL1 0.000
@<TRIPOS>BOND
     1      1      2   2
     2      2      3   1
     3      3      4   2
     4      4      5   1
     5      5      6   2
     6      6      1   1
     7      4      7   1
     8      7      8   1
     9      8      9   2
    10      9     10   1
    11     10     11   2
    12     11     12   1
    13     12     13   2
    14     13      8   1
    15      1     14   1
    16     11     15   1
    17     16     17   2
    18     17     18   1
    19     18     19   2
    20     19     20   1
    21     20     21   2
    22     21     16   1
    23      7     16   1
    24      2     22   1
    25      3     23   1
    26      5     24   1
    27      6     25   1
    28      9     26   1
    29     10     27   1
    30     12     28   1
    31     13     29   1
    32     14     30   1
    33     14     31   1
    34     14     32   1
    35     15     33   1
    36     15     34   1
    37     15     35   1
    38     17     36   1
    39     18     37   1
    40     19     38   1
    41     21     39   1
    42     40     41   2
    43     41     42   1
    44     42     43   2
    45     43     44   1
    46     44     45   2
    47     45     40   1
    48     46     47   2
    49     46     48   1
    50     43     46   1
    51     42     49   1
    52     44     50   1
    53     45     51   1
    54     20     40   1
