# Produced with molli package
@<TRIPOS>MOLECULE
C_9_K
52 55 0 0 0
SMALL
USER_CHARGES

@<TRIPOS>ATOM
     1 C      -5.231138     4.319545     1.698120 C          1 UNL1 0.000
     2 C      -5.837449     3.189218     1.147239 C          1 UNL1 0.000
     3 C      -5.167918     1.957179     1.129777 C          1 UNL1 0.000
     4 C      -3.891331     1.803928     1.696415 C          1 UNL1 0.000
     5 C      -3.275917     2.969683     2.193777 C          1 UNL1 0.000
     6 C      -3.932656     4.206165     2.196208 C          1 UNL1 0.000
     7 N      -3.217501     0.523149     1.754572 N          1 UNL1 0.000
     8 C      -3.899989    -0.755916     1.808207 C          1 UNL1 0.000
     9 C      -5.198619    -0.898783     2.324037 C          1 UNL1 0.000
    10 C      -5.860749    -2.135147     2.314369 C          1 UNL1 0.000
    11 C      -5.225595    -3.280849     1.829257 C          1 UNL1 0.000
    12 C      -3.913448    -3.173843     1.371073 C          1 UNL1 0.000
    13 C      -3.264420    -1.933539     1.363373 C          1 UNL1 0.000
    14 C      -5.943594     5.637565     1.756103 C          1 UNL1 0.000
    15 C      -5.953340    -4.590838     1.783176 C          1 UNL1 0.000
    16 C      -1.778406     0.514206     1.780245 C          1 UNL1 0.000
    17 C      -1.096338     0.351303     2.993982 C          1 UNL1 0.000
    18 C       0.295094     0.303786     3.013474 C          1 UNL1 0.000
    19 C       1.010697     0.379766     1.816697 C          1 UNL1 0.000
    20 C       0.350880     0.522559     0.584382 C          1 UNL1 0.000
    21 C      -1.049021     0.619154     0.584086 C          1 UNL1 0.000
    22 H      -6.839306     3.250922     0.728157 H          1 UNL1 0.000
    23 H      -5.667325     1.116008     0.656272 H          1 UNL1 0.000
    24 H      -2.275063     2.934104     2.615433 H          1 UNL1 0.000
    25 H      -3.423285     5.075756     2.605681 H          1 UNL1 0.000
    26 H      -5.721417    -0.049142     2.754523 H          1 UNL1 0.000
    27 H      -6.879635    -2.193204     2.691153 H          1 UNL1 0.000
    28 H      -3.381514    -4.048919     1.004826 H          1 UNL1 0.000
    29 H      -2.247864    -1.907523     0.980488 H          1 UNL1 0.000
    30 H      -5.421023     6.379095     1.143965 H          1 UNL1 0.000
    31 H      -5.989113     5.993880     2.790928 H          1 UNL1 0.000
    32 H      -6.971758     5.555711     1.388890 H          1 UNL1 0.000
    33 H      -5.289631    -5.407763     1.480201 H          1 UNL1 0.000
    34 H      -6.773310    -4.537542     1.059630 H          1 UNL1 0.000
    35 H      -6.357451    -4.838717     2.769532 H          1 UNL1 0.000
    36 H      -1.657242     0.269409     3.921648 H          1 UNL1 0.000
    37 H       0.822133     0.193022     3.957394 H          1 UNL1 0.000
    38 H       2.097278     0.320865     1.848892 H          1 UNL1 0.000
    39 H      -1.591404     0.719131    -0.354110 H          1 UNL1 0.000
    40 C       1.107207     0.518552    -0.674061 C          1 UNL1 0.000
    41 C       1.116076     1.640222    -1.520534 C          1 UNL1 0.000
    42 C       1.838813     1.629559    -2.717557 C          1 UNL1 0.000
    43 C       2.560289     0.484484    -3.069541 C          1 UNL1 0.000
    44 C       2.564650    -0.646894    -2.249534 C          1 UNL1 0.000
    45 C       1.835910    -0.623344    -1.058249 C          1 UNL1 0.000
    46 N       3.325134     0.469033    -4.312865 N          1 UNL1 0.000
    47 O       4.368182    -0.198348    -4.333145 O          1 UNL1 0.000
    48 O       2.879944     1.125502    -5.265347 O          1 UNL1 0.000
    49 H       0.562632     2.536012    -1.242030 H          1 UNL1 0.000
    50 H       1.837085     2.511762    -3.354041 H          1 UNL1 0.000
    51 H       3.116943    -1.542625    -2.524924 H          1 UNL1 0.000
    52 H       1.828017    -1.510728    -0.426203 H          1 UNL1 0.000
@<TRIPOS>BOND
     1      1      2   2
     2      2      3   1
     3      3      4   2
     4      4      5   1
     5      5      6   2
     6      6      1   1
     7      4      7   1
     8      7      8   1
     9      8      9   2
    10      9     10   1
    11     10     11   2
    12     11     12   1
    13     12     13   2
    14     13      8   1
    15      1     14   1
    16     11     15   1
    17     16     17   2
    18     17     18   1
    19     18     19   2
    20     19     20   1
    21     20     21   2
    22     21     16   1
    23      7     16   1
    24      2     22   1
    25      3     23   1
    26      5     24   1
    27      6     25   1
    28      9     26   1
    29     10     27   1
    30     12     28   1
    31     13     29   1
    32     14     30   1
    33     14     31   1
    34     14     32   1
    35     15     33   1
    36     15     34   1
    37     15     35   1
    38     17     36   1
    39     18     37   1
    40     19     38   1
    41     21     39   1
    42     40     41   2
    43     41     42   1
    44     42     43   2
    45     43     44   1
    46     44     45   2
    47     45     40   1
    48     46     47   2
    49     46     48   1
    50     43     46   1
    51     41     49   1
    52     42     50   1
    53     44     51   1
    54     45     52   1
    55     20     40   1
