# Produced with molli package
@<TRIPOS>MOLECULE
C_9_O
49 52 0 0 0
SMALL
USER_CHARGES

@<TRIPOS>ATOM
     1 C      -5.265779     4.289003     1.967762 C          1 UNL1 0.000
     2 C      -5.830556     3.126124     2.498949 C          1 UNL1 0.000
     3 C      -5.157206     1.901110     2.409904 C          1 UNL1 0.000
     4 C      -3.910131     1.796841     1.771247 C          1 UNL1 0.000
     5 C      -3.345330     2.983057     1.265688 C          1 UNL1 0.000
     6 C      -4.012167     4.209909     1.359430 C          1 UNL1 0.000
     7 N      -3.212018     0.535485     1.659982 N          1 UNL1 0.000
     8 C      -3.887401    -0.738589     1.567564 C          1 UNL1 0.000
     9 C      -5.138521    -0.869012     0.941117 C          1 UNL1 0.000
    10 C      -5.806625    -2.099532     0.891849 C          1 UNL1 0.000
    11 C      -5.231410    -3.242286     1.452346 C          1 UNL1 0.000
    12 C      -3.967619    -3.140519     2.037697 C          1 UNL1 0.000
    13 C      -3.305701    -1.908638     2.089813 C          1 UNL1 0.000
    14 C      -5.996426     5.594765     2.063077 C          1 UNL1 0.000
    15 C      -5.940153    -4.563346     1.426308 C          1 UNL1 0.000
    16 C      -1.775134     0.552288     1.681806 C          1 UNL1 0.000
    17 C      -1.089390     0.735160     2.891027 C          1 UNL1 0.000
    18 C       0.303579     0.755216     2.912305 C          1 UNL1 0.000
    19 C       1.019421     0.624875     1.720266 C          1 UNL1 0.000
    20 C       0.354975     0.466756     0.492820 C          1 UNL1 0.000
    21 C      -1.046991     0.411526     0.490347 C          1 UNL1 0.000
    22 H      -6.799387     3.163766     2.991823 H          1 UNL1 0.000
    23 H      -5.617023     1.027868     2.865451 H          1 UNL1 0.000
    24 H      -2.377691     2.968190     0.769403 H          1 UNL1 0.000
    25 H      -3.539231     5.097877     0.946189 H          1 UNL1 0.000
    26 H      -5.608519    -0.009095     0.469998 H          1 UNL1 0.000
    27 H      -6.780780    -2.151571     0.411120 H          1 UNL1 0.000
    28 H      -3.489183    -4.017419     2.468064 H          1 UNL1 0.000
    29 H      -2.332679    -1.875258     2.572427 H          1 UNL1 0.000
    30 H      -5.439925     6.402820     1.576520 H          1 UNL1 0.000
    31 H      -6.142272     5.870421     3.112214 H          1 UNL1 0.000
    32 H      -6.971293     5.518322     1.570740 H          1 UNL1 0.000
    33 H      -5.371998    -5.285672     0.831810 H          1 UNL1 0.000
    34 H      -6.939961    -4.474926     0.989021 H          1 UNL1 0.000
    35 H      -6.055898    -4.948270     2.445066 H          1 UNL1 0.000
    36 H      -1.648915     0.853402     3.815526 H          1 UNL1 0.000
    37 H       0.830899     0.891065     3.852567 H          1 UNL1 0.000
    38 H       2.106154     0.678388     1.745163 H          1 UNL1 0.000
    39 H      -1.582257     0.302104    -0.450816 H          1 UNL1 0.000
    40 C       1.104899     0.410637    -0.761949 C          1 UNL1 0.000
    41 N       1.107544     1.556041    -1.487826 N          1 UNL1 0.000
    42 C       1.808266     1.558101    -2.642061 C          1 UNL1 0.000
    43 C       2.508454     0.463708    -3.119276 C          1 UNL1 0.000
    44 C       2.490175    -0.705413    -2.368155 C          1 UNL1 0.000
    45 C       1.781278    -0.735783    -1.169356 C          1 UNL1 0.000
    46 H       1.791904     2.496030    -3.189610 H          1 UNL1 0.000
    47 H       3.053964     0.521935    -4.054415 H          1 UNL1 0.000
    48 H       3.023724    -1.586849    -2.711532 H          1 UNL1 0.000
    49 H       1.753842    -1.638242    -0.567920 H          1 UNL1 0.000
@<TRIPOS>BOND
     1      1      2   2
     2      2      3   1
     3      3      4   2
     4      4      5   1
     5      5      6   2
     6      6      1   1
     7      4      7   1
     8      7      8   1
     9      8      9   2
    10      9     10   1
    11     10     11   2
    12     11     12   1
    13     12     13   2
    14     13      8   1
    15      1     14   1
    16     11     15   1
    17     16     17   2
    18     17     18   1
    19     18     19   2
    20     19     20   1
    21     20     21   2
    22     21     16   1
    23      7     16   1
    24      2     22   1
    25      3     23   1
    26      5     24   1
    27      6     25   1
    28      9     26   1
    29     10     27   1
    30     12     28   1
    31     13     29   1
    32     14     30   1
    33     14     31   1
    34     14     32   1
    35     15     33   1
    36     15     34   1
    37     15     35   1
    38     17     36   1
    39     18     37   1
    40     19     38   1
    41     21     39   1
    42     40     41   2
    43     41     42   1
    44     42     43   2
    45     43     44   1
    46     44     45   2
    47     45     40   1
    48     42     46   1
    49     43     47   1
    50     44     48   1
    51     45     49   1
    52     20     40   1
