# Produced with molli package
@<TRIPOS>MOLECULE
C_9_T
53 56 0 0 0
SMALL
USER_CHARGES

@<TRIPOS>ATOM
     1 C      -5.391788     4.222991     2.107289 C          1 UNL1 0.000
     2 C      -5.933126     3.038166     2.613568 C          1 UNL1 0.000
     3 C      -5.235056     1.829272     2.499384 C          1 UNL1 0.000
     4 C      -3.982854     1.764738     1.865684 C          1 UNL1 0.000
     5 C      -3.439597     2.973548     1.390685 C          1 UNL1 0.000
     6 C      -4.130913     4.184383     1.510206 C          1 UNL1 0.000
     7 N      -3.258578     0.520336     1.728977 N          1 UNL1 0.000
     8 C      -3.912536    -0.763720     1.640975 C          1 UNL1 0.000
     9 C      -5.144695    -0.919131     0.983851 C          1 UNL1 0.000
    10 C      -5.797619    -2.157271     0.942642 C          1 UNL1 0.000
    11 C      -5.230909    -3.278911     1.553460 C          1 UNL1 0.000
    12 C      -3.979804    -3.153436     2.161591 C          1 UNL1 0.000
    13 C      -3.330639    -1.914275     2.202837 C          1 UNL1 0.000
    14 C      -6.137547     5.516178     2.246974 C          1 UNL1 0.000
    15 C      -5.921171    -4.609365     1.509015 C          1 UNL1 0.000
    16 C      -1.821908     0.563730     1.726381 C          1 UNL1 0.000
    17 C      -1.121197     0.815318     2.914768 C          1 UNL1 0.000
    18 C       0.270141     0.883967     2.908820 C          1 UNL1 0.000
    19 C       0.968130     0.739219     1.708528 C          1 UNL1 0.000
    20 C       0.287779     0.514227     0.501343 C          1 UNL1 0.000
    21 C      -1.109996     0.399788     0.527058 C          1 UNL1 0.000
    22 H      -6.902719     3.045238     3.106352 H          1 UNL1 0.000
    23 H      -5.679749     0.937226     2.933364 H          1 UNL1 0.000
    24 H      -2.468838     2.988919     0.901952 H          1 UNL1 0.000
    25 H      -3.672850     5.092871     1.125911 H          1 UNL1 0.000
    26 H      -5.608877    -0.072597     0.483411 H          1 UNL1 0.000
    27 H      -6.754344    -2.233738     0.431169 H          1 UNL1 0.000
    28 H      -3.501501    -4.016351     2.619596 H          1 UNL1 0.000
    29 H      -2.370196    -1.857019     2.708146 H          1 UNL1 0.000
    30 H      -5.702552     6.297441     1.614579 H          1 UNL1 0.000
    31 H      -6.106977     5.857471     3.286240 H          1 UNL1 0.000
    32 H      -7.180874     5.389974     1.939639 H          1 UNL1 0.000
    33 H      -5.545801    -5.200413     0.668336 H          1 UNL1 0.000
    34 H      -7.003929    -4.487505     1.399221 H          1 UNL1 0.000
    35 H      -5.751317    -5.163650     2.438447 H          1 UNL1 0.000
    36 H      -1.667353     0.948689     3.845251 H          1 UNL1 0.000
    37 H       0.809919     1.067989     3.833660 H          1 UNL1 0.000
    38 H       2.053147     0.826154     1.710919 H          1 UNL1 0.000
    39 H      -1.658651     0.227438    -0.396652 H          1 UNL1 0.000
    40 C       1.024052     0.468265    -0.764140 C          1 UNL1 0.000
    41 C       1.656965    -0.703301    -1.196965 C          1 UNL1 0.000
    42 C       2.385335    -0.721820    -2.391527 C          1 UNL1 0.000
    43 C       2.500485     0.434171    -3.171694 C          1 UNL1 0.000
    44 C       1.858253     1.603138    -2.751289 C          1 UNL1 0.000
    45 C       1.129034     1.618974    -1.559778 C          1 UNL1 0.000
    46 C       3.277827     0.428773    -4.454393 C          1 UNL1 0.000
    47 H       1.586858    -1.611379    -0.602106 H          1 UNL1 0.000
    48 H       2.865655    -1.646307    -2.703386 H          1 UNL1 0.000
    49 H       1.925894     2.511628    -3.345438 H          1 UNL1 0.000
    50 H       0.646753     2.542535    -1.245760 H          1 UNL1 0.000
    51 H       3.991475     1.259385    -4.468489 H          1 UNL1 0.000
    52 H       2.597963     0.525152    -5.306679 H          1 UNL1 0.000
    53 H       3.848401    -0.497990    -4.573578 H          1 UNL1 0.000
@<TRIPOS>BOND
     1      1      2   2
     2      2      3   1
     3      3      4   2
     4      4      5   1
     5      5      6   2
     6      6      1   1
     7      4      7   1
     8      7      8   1
     9      8      9   2
    10      9     10   1
    11     10     11   2
    12     11     12   1
    13     12     13   2
    14     13      8   1
    15      1     14   1
    16     11     15   1
    17     16     17   2
    18     17     18   1
    19     18     19   2
    20     19     20   1
    21     20     21   2
    22     21     16   1
    23      7     16   1
    24      2     22   1
    25      3     23   1
    26      5     24   1
    27      6     25   1
    28      9     26   1
    29     10     27   1
    30     12     28   1
    31     13     29   1
    32     14     30   1
    33     14     31   1
    34     14     32   1
    35     15     33   1
    36     15     34   1
    37     15     35   1
    38     17     36   1
    39     18     37   1
    40     19     38   1
    41     21     39   1
    42     40     41   2
    43     41     42   1
    44     42     43   2
    45     43     44   1
    46     44     45   2
    47     45     40   1
    48     43     46   1
    49     41     47   1
    50     42     48   1
    51     44     49   1
    52     45     50   1
    53     46     51   1
    54     46     52   1
    55     46     53   1
    56     20     40   1
