# Produced with molli package
@<TRIPOS>MOLECULE
D_10_T
57 63 0 0 0
SMALL
USER_CHARGES

@<TRIPOS>ATOM
     1 C      -6.073051     3.634974     1.639362 C          1 UNL1 0.000
     2 C      -4.747518     3.949628     1.346367 C          1 UNL1 0.000
     3 C      -3.758273     2.970150     1.347160 C          1 UNL1 0.000
     4 C      -4.135716     1.634341     1.561399 C          1 UNL1 0.000
     5 C      -5.467908     1.239450     1.744300 C          1 UNL1 0.000
     6 C      -6.448630     2.288045     1.891305 C          1 UNL1 0.000
     7 N      -3.348292     0.509118     1.707677 N          1 UNL1 0.000
     8 C      -4.133152    -0.614284     1.882837 C          1 UNL1 0.000
     9 C      -3.752975    -1.948630     2.103034 C          1 UNL1 0.000
    10 C      -4.744874    -2.924247     2.154373 C          1 UNL1 0.000
    11 C      -6.078191    -2.609687     1.899333 C          1 UNL1 0.000
    12 C      -6.456507    -1.266257     1.633826 C          1 UNL1 0.000
    13 C      -5.469353    -0.218676     1.736936 C          1 UNL1 0.000
    14 C      -7.031596     4.657886     1.728622 C          1 UNL1 0.000
    15 C      -8.342480     4.380808     2.113163 C          1 UNL1 0.000
    16 C      -8.702681     3.081730     2.444925 C          1 UNL1 0.000
    17 C      -7.763134     2.051898     2.352038 C          1 UNL1 0.000
    18 C      -7.783688    -1.032649     1.209962 C          1 UNL1 0.000
    19 C      -8.730287    -2.059458     1.169340 C          1 UNL1 0.000
    20 C      -8.365797    -3.352888     1.518706 C          1 UNL1 0.000
    21 C      -7.044086    -3.629008     1.865064 C          1 UNL1 0.000
    22 C      -1.936977     0.513411     1.721780 C          1 UNL1 0.000
    23 C      -1.272518     0.431315     2.944958 C          1 UNL1 0.000
    24 C       0.114097     0.430749     2.941201 C          1 UNL1 0.000
    25 C       0.833047     0.484421     1.749000 C          1 UNL1 0.000
    26 C       0.166269     0.552588     0.514270 C          1 UNL1 0.000
    27 C      -1.237229     0.584234     0.510425 C          1 UNL1 0.000
    28 F       0.775235     0.373330     4.104589 F          1 UNL1 0.000
    29 H      -4.451941     4.982912     1.174953 H          1 UNL1 0.000
    30 H      -2.718113     3.247229     1.199083 H          1 UNL1 0.000
    31 H      -2.709703    -2.227328     2.224058 H          1 UNL1 0.000
    32 H      -4.447516    -3.955083     2.337207 H          1 UNL1 0.000
    33 H      -6.757269     5.689777     1.519856 H          1 UNL1 0.000
    34 H      -9.069771     5.184887     2.186487 H          1 UNL1 0.000
    35 H      -9.709607     2.866646     2.793110 H          1 UNL1 0.000
    36 H      -8.059395     1.068069     2.700390 H          1 UNL1 0.000
    37 H      -8.085746    -0.053624     0.852369 H          1 UNL1 0.000
    38 H      -9.747150    -1.846746     0.849796 H          1 UNL1 0.000
    39 H      -9.099375    -4.154081     1.489075 H          1 UNL1 0.000
    40 H      -6.768217    -4.657275     2.089227 H          1 UNL1 0.000
    41 H      -1.809339     0.385526     3.887354 H          1 UNL1 0.000
    42 H       1.919266     0.473803     1.791481 H          1 UNL1 0.000
    43 H      -1.777495     0.626542    -0.434435 H          1 UNL1 0.000
    44 C       0.927051     0.564910    -0.739130 C          1 UNL1 0.000
    45 C       0.998761     1.718298    -1.531965 C          1 UNL1 0.000
    46 C       1.745874     1.729550    -2.714687 C          1 UNL1 0.000
    47 C       2.431066     0.583985    -3.132422 C          1 UNL1 0.000
    48 C       2.356589    -0.573296    -2.350761 C          1 UNL1 0.000
    49 C       1.614038    -0.581189    -1.166839 C          1 UNL1 0.000
    50 C       3.245864     0.584258    -4.391793 C          1 UNL1 0.000
    51 H       0.482149     2.625246    -1.225094 H          1 UNL1 0.000
    52 H       1.790782     2.643079    -3.303307 H          1 UNL1 0.000
    53 H       2.878847    -1.476942    -2.657496 H          1 UNL1 0.000
    54 H       1.571426    -1.495206    -0.577654 H          1 UNL1 0.000
    55 H       2.881716    -0.187111    -5.077996 H          1 UNL1 0.000
    56 H       4.298055     0.390995    -4.158794 H          1 UNL1 0.000
    57 H       3.187142     1.547678    -4.908611 H          1 UNL1 0.000
@<TRIPOS>BOND
     1      1      2   2
     2      2      3   1
     3      3      4   2
     4      4      5   1
     5      5      6   2
     6      6      1   1
     7      4      7   1
     8      7      8   1
     9      8      9   2
    10      9     10   1
    11     10     11   2
    12     11     12   1
    13     12     13   2
    14     13      8   1
    15     13      5   1
    16      1     14   1
    17     14     15   2
    18     15     16   1
    19     16     17   2
    20     17      6   1
    21     12     18   1
    22     18     19   2
    23     19     20   1
    24     20     21   2
    25     21     11   1
    26     22     23   2
    27     23     24   1
    28     24     25   2
    29     25     26   1
    30     26     27   2
    31     27     22   1
    32     24     28   1
    33      7     22   1
    34      2     29   1
    35      3     30   1
    36      9     31   1
    37     10     32   1
    38     14     33   1
    39     15     34   1
    40     16     35   1
    41     17     36   1
    42     18     37   1
    43     19     38   1
    44     20     39   1
    45     21     40   1
    46     23     41   1
    47     25     42   1
    48     27     43   1
    49     44     45   2
    50     45     46   1
    51     46     47   2
    52     47     48   1
    53     48     49   2
    54     49     44   1
    55     47     50   1
    56     45     51   1
    57     46     52   1
    58     48     53   1
    59     49     54   1
    60     50     55   1
    61     50     56   1
    62     50     57   1
    63     26     44   1
