# Produced with molli package
@<TRIPOS>MOLECULE
D_10_S
59 65 0 0 0
SMALL
USER_CHARGES

@<TRIPOS>ATOM
     1 C      -6.078420     3.640430     1.905426 C          1 UNL1 0.000
     2 C      -4.732027     3.947084     2.078967 C          1 UNL1 0.000
     3 C      -3.756757     2.958817     2.013064 C          1 UNL1 0.000
     4 C      -4.160599     1.623481     1.850078 C          1 UNL1 0.000
     5 C      -5.504909     1.234469     1.755029 C          1 UNL1 0.000
     6 C      -6.486576     2.295758     1.681839 C          1 UNL1 0.000
     7 N      -3.385804     0.490381     1.713603 N          1 UNL1 0.000
     8 C      -4.178498    -0.632179     1.592548 C          1 UNL1 0.000
     9 C      -3.798706    -1.970023     1.395747 C          1 UNL1 0.000
    10 C      -4.788334    -2.945863     1.363408 C          1 UNL1 0.000
    11 C      -6.119541    -2.627199     1.615704 C          1 UNL1 0.000
    12 C      -6.497561    -1.282277     1.884165 C          1 UNL1 0.000
    13 C      -5.511740    -0.230154     1.760298 C          1 UNL1 0.000
    14 C      -7.028576     4.674588     1.916989 C          1 UNL1 0.000
    15 C      -8.373848     4.414950     1.667255 C          1 UNL1 0.000
    16 C      -8.776270     3.123827     1.356162 C          1 UNL1 0.000
    17 C      -7.840773     2.084830     1.339164 C          1 UNL1 0.000
    18 C      -7.823507    -1.062438     2.318942 C          1 UNL1 0.000
    19 C      -8.770930    -2.090343     2.342955 C          1 UNL1 0.000
    20 C      -8.406217    -3.378819     1.978335 C          1 UNL1 0.000
    21 C      -7.082378    -3.649339     1.640550 C          1 UNL1 0.000
    22 C      -1.974625     0.475058     1.739529 C          1 UNL1 0.000
    23 C      -1.324230     0.461307     2.972831 C          1 UNL1 0.000
    24 C       0.061838     0.429651     2.984014 C          1 UNL1 0.000
    25 C       0.793938     0.421061     1.798350 C          1 UNL1 0.000
    26 C       0.141283     0.446193     0.554422 C          1 UNL1 0.000
    27 C      -1.262479     0.468033     0.533319 C          1 UNL1 0.000
    28 F       0.710476     0.407645     4.155511 F          1 UNL1 0.000
    29 H      -4.414186     4.978614     2.219135 H          1 UNL1 0.000
    30 H      -2.706176     3.226793     2.087193 H          1 UNL1 0.000
    31 H      -2.756300    -2.248516     1.267043 H          1 UNL1 0.000
    32 H      -4.491107    -3.978631     1.191344 H          1 UNL1 0.000
    33 H      -6.723710     5.701523     2.108531 H          1 UNL1 0.000
    34 H      -9.096982     5.225903     1.681374 H          1 UNL1 0.000
    35 H      -9.815612     2.921860     1.110506 H          1 UNL1 0.000
    36 H      -8.180479     1.113370     0.998930 H          1 UNL1 0.000
    37 H      -8.126371    -0.093627     2.700340 H          1 UNL1 0.000
    38 H      -9.789245    -1.882154     2.660891 H          1 UNL1 0.000
    39 H      -9.139764    -4.180392     1.991743 H          1 UNL1 0.000
    40 H      -6.803519    -4.675440     1.409301 H          1 UNL1 0.000
    41 H      -1.871755     0.463824     3.910282 H          1 UNL1 0.000
    42 H       1.879464     0.407435     1.855334 H          1 UNL1 0.000
    43 H      -1.794060     0.484732    -0.417179 H          1 UNL1 0.000
    44 C       0.919070     0.462756    -0.688370 C          1 UNL1 0.000
    45 C       1.006738     1.627743    -1.462813 C          1 UNL1 0.000
    46 C       1.775885     1.653805    -2.630623 C          1 UNL1 0.000
    47 C       2.466948     0.511414    -3.053687 C          1 UNL1 0.000
    48 C       2.388479    -0.655025    -2.286163 C          1 UNL1 0.000
    49 C       1.618944    -0.676011    -1.115469 C          1 UNL1 0.000
    50 C       3.274655     0.596698    -4.305866 C          1 UNL1 0.000
    51 C       3.814618    -0.661147    -4.933740 C          1 UNL1 0.000
    52 O       3.507696     1.699059    -4.804817 O          1 UNL1 0.000
    53 H       0.488369     2.533549    -1.152816 H          1 UNL1 0.000
    54 H       1.836093     2.575881    -3.207093 H          1 UNL1 0.000
    55 H       2.924433    -1.557766    -2.563292 H          1 UNL1 0.000
    56 H       1.570348    -1.593777    -0.531237 H          1 UNL1 0.000
    57 H       3.896368    -0.507841    -6.014655 H          1 UNL1 0.000
    58 H       3.143292    -1.509843    -4.786084 H          1 UNL1 0.000
    59 H       4.803735    -0.880647    -4.524431 H          1 UNL1 0.000
@<TRIPOS>BOND
     1      1      2   2
     2      2      3   1
     3      3      4   2
     4      4      5   1
     5      5      6   2
     6      6      1   1
     7      4      7   1
     8      7      8   1
     9      8      9   2
    10      9     10   1
    11     10     11   2
    12     11     12   1
    13     12     13   2
    14     13      8   1
    15     13      5   1
    16      1     14   1
    17     14     15   2
    18     15     16   1
    19     16     17   2
    20     17      6   1
    21     12     18   1
    22     18     19   2
    23     19     20   1
    24     20     21   2
    25     21     11   1
    26     22     23   2
    27     23     24   1
    28     24     25   2
    29     25     26   1
    30     26     27   2
    31     27     22   1
    32     24     28   1
    33      7     22   1
    34      2     29   1
    35      3     30   1
    36      9     31   1
    37     10     32   1
    38     14     33   1
    39     15     34   1
    40     16     35   1
    41     17     36   1
    42     18     37   1
    43     19     38   1
    44     20     39   1
    45     21     40   1
    46     23     41   1
    47     25     42   1
    48     27     43   1
    49     44     45   2
    50     45     46   1
    51     46     47   2
    52     47     48   1
    53     48     49   2
    54     49     44   1
    55     47     50   1
    56     50     51   1
    57     50     52   2
    58     45     53   1
    59     46     54   1
    60     48     55   1
    61     49     56   1
    62     51     57   1
    63     51     58   1
    64     51     59   1
    65     26     44   1
