# Produced with molli package
@<TRIPOS>MOLECULE
D_10_N
51 57 0 0 0
SMALL
USER_CHARGES

@<TRIPOS>ATOM
     1 C      -6.093866     3.663370     1.906800 C          1 UNL1 0.000
     2 C      -4.762341     3.985059     2.156558 C          1 UNL1 0.000
     3 C      -3.764066     3.018014     2.089742 C          1 UNL1 0.000
     4 C      -4.134058     1.681946     1.858651 C          1 UNL1 0.000
     5 C      -5.467318     1.278352     1.707869 C          1 UNL1 0.000
     6 C      -6.463662     2.319817     1.624780 C          1 UNL1 0.000
     7 N      -3.338941     0.567854     1.666318 N          1 UNL1 0.000
     8 C      -4.117785    -0.560465     1.496644 C          1 UNL1 0.000
     9 C      -3.729779    -1.891097     1.265718 C          1 UNL1 0.000
    10 C      -4.709871    -2.879227     1.256690 C          1 UNL1 0.000
    11 C      -6.037035    -2.580897     1.555703 C          1 UNL1 0.000
    12 C      -6.424861    -1.239552     1.823936 C          1 UNL1 0.000
    13 C      -5.453229    -0.180326     1.690205 C          1 UNL1 0.000
    14 C      -7.066569     4.675920     1.893763 C          1 UNL1 0.000
    15 C      -8.388721     4.396052     1.554362 C          1 UNL1 0.000
    16 C      -8.746443     3.105061     1.188347 C          1 UNL1 0.000
    17 C      -7.791962     2.084742     1.205901 C          1 UNL1 0.000
    18 C      -7.741044    -1.023057     2.288830 C          1 UNL1 0.000
    19 C      -8.670548    -2.062834     2.371221 C          1 UNL1 0.000
    20 C      -8.297630    -3.355036     2.025858 C          1 UNL1 0.000
    21 C      -6.984826    -3.613943     1.636689 C          1 UNL1 0.000
    22 C      -1.926334     0.577754     1.681951 C          1 UNL1 0.000
    23 C      -1.262919     0.768751     2.895140 C          1 UNL1 0.000
    24 C       0.124521     0.802608     2.893235 C          1 UNL1 0.000
    25 C       0.848439     0.683236     1.710043 C          1 UNL1 0.000
    26 C       0.175680     0.505806     0.494543 C          1 UNL1 0.000
    27 C      -1.223315     0.432811     0.480023 C          1 UNL1 0.000
    28 F       0.779537     0.962695     4.050352 F          1 UNL1 0.000
    29 H      -4.471251     5.016518     2.347895 H          1 UNL1 0.000
    30 H      -2.722818     3.305933     2.205380 H          1 UNL1 0.000
    31 H      -2.687675    -2.159530     1.116725 H          1 UNL1 0.000
    32 H      -4.404787    -3.908527     1.075255 H          1 UNL1 0.000
    33 H      -6.795861     5.703152     2.130549 H          1 UNL1 0.000
    34 H      -9.128153     5.192183     1.542845 H          1 UNL1 0.000
    35 H      -9.764337     2.890151     0.873894 H          1 UNL1 0.000
    36 H      -8.090211     1.109525     0.834438 H          1 UNL1 0.000
    37 H      -8.047201    -0.046699     2.649887 H          1 UNL1 0.000
    38 H      -9.679195    -1.861806     2.722508 H          1 UNL1 0.000
    39 H      -9.016450    -4.167156     2.092461 H          1 UNL1 0.000
    40 H      -6.700053    -4.641360     1.417726 H          1 UNL1 0.000
    41 H      -1.801930     0.872115     3.832142 H          1 UNL1 0.000
    42 H       1.933038     0.729797     1.749904 H          1 UNL1 0.000
    43 H      -1.759075     0.318651    -0.460803 H          1 UNL1 0.000
    44 C       0.932808     0.454453    -0.745494 C          1 UNL1 0.000
    45 C       0.888957    -0.641418    -1.583937 C          1 UNL1 0.000
    46 S       1.877660    -0.441635    -2.968543 S          1 UNL1 0.000
    47 C       2.372239     1.114295    -2.460361 C          1 UNL1 0.000
    48 C       1.801457     1.469974    -1.258218 C          1 UNL1 0.000
    49 H       0.333112    -1.560407    -1.455916 H          1 UNL1 0.000
    50 H       3.056460     1.693440    -3.065509 H          1 UNL1 0.000
    51 H       1.988938     2.421478    -0.774635 H          1 UNL1 0.000
@<TRIPOS>BOND
     1      1      2   2
     2      2      3   1
     3      3      4   2
     4      4      5   1
     5      5      6   2
     6      6      1   1
     7      4      7   1
     8      7      8   1
     9      8      9   2
    10      9     10   1
    11     10     11   2
    12     11     12   1
    13     12     13   2
    14     13      8   1
    15     13      5   1
    16      1     14   1
    17     14     15   2
    18     15     16   1
    19     16     17   2
    20     17      6   1
    21     12     18   1
    22     18     19   2
    23     19     20   1
    24     20     21   2
    25     21     11   1
    26     22     23   2
    27     23     24   1
    28     24     25   2
    29     25     26   1
    30     26     27   2
    31     27     22   1
    32     24     28   1
    33      7     22   1
    34      2     29   1
    35      3     30   1
    36      9     31   1
    37     10     32   1
    38     14     33   1
    39     15     34   1
    40     16     35   1
    41     17     36   1
    42     18     37   1
    43     19     38   1
    44     20     39   1
    45     21     40   1
    46     23     41   1
    47     25     42   1
    48     27     43   1
    49     44     45   2
    50     45     46   1
    51     46     47   1
    52     47     48   2
    53     48     44   1
    54     45     49   1
    55     47     50   1
    56     48     51   1
    57     26     44   1
