# Produced with molli package
@<TRIPOS>MOLECULE
D_10_R
55 61 0 0 0
SMALL
USER_CHARGES

@<TRIPOS>ATOM
     1 C      -6.126163     3.685654     1.916101 C          1 UNL1 0.000
     2 C      -4.784824     3.990475     2.130720 C          1 UNL1 0.000
     3 C      -3.805612     3.005243     2.066639 C          1 UNL1 0.000
     4 C      -4.203265     1.672706     1.868907 C          1 UNL1 0.000
     5 C      -5.544639     1.285275     1.739901 C          1 UNL1 0.000
     6 C      -6.525167     2.344778     1.659654 C          1 UNL1 0.000
     7 N      -3.426135     0.543811     1.709678 N          1 UNL1 0.000
     8 C      -4.218323    -0.577517     1.563461 C          1 UNL1 0.000
     9 C      -3.839971    -1.914786     1.357833 C          1 UNL1 0.000
    10 C      -4.829865    -2.891077     1.327069 C          1 UNL1 0.000
    11 C      -6.160510    -2.573350     1.584799 C          1 UNL1 0.000
    12 C      -6.538404    -1.227873     1.848943 C          1 UNL1 0.000
    13 C      -5.551709    -0.177203     1.731274 C          1 UNL1 0.000
    14 C      -7.079729     4.716575     1.915884 C          1 UNL1 0.000
    15 C      -8.415704     4.457129     1.618535 C          1 UNL1 0.000
    16 C      -8.805091     3.169796     1.275224 C          1 UNL1 0.000
    17 C      -7.867522     2.133059     1.274085 C          1 UNL1 0.000
    18 C      -7.864121    -1.003495     2.282184 C          1 UNL1 0.000
    19 C      -8.809939    -2.032133     2.319647 C          1 UNL1 0.000
    20 C      -8.444529    -3.323948     1.967205 C          1 UNL1 0.000
    21 C      -7.122440    -3.595984     1.622850 C          1 UNL1 0.000
    22 C      -2.015332     0.524944     1.752949 C          1 UNL1 0.000
    23 C      -1.377786     0.579140     2.991850 C          1 UNL1 0.000
    24 C       0.007115     0.526774     3.020713 C          1 UNL1 0.000
    25 C       0.751600     0.431731     1.846735 C          1 UNL1 0.000
    26 C       0.113303     0.390449     0.594718 C          1 UNL1 0.000
    27 C      -1.289988     0.435549     0.558216 C          1 UNL1 0.000
    28 F       0.643638     0.564612     4.198370 F          1 UNL1 0.000
    29 H      -4.472112     5.019793     2.296232 H          1 UNL1 0.000
    30 H      -2.757003     3.274625     2.161926 H          1 UNL1 0.000
    31 H      -2.797936    -2.194582     1.230975 H          1 UNL1 0.000
    32 H      -4.532921    -3.924013     1.155468 H          1 UNL1 0.000
    33 H      -6.783884     5.741039     2.132802 H          1 UNL1 0.000
    34 H      -9.141020     5.266232     1.620886 H          1 UNL1 0.000
    35 H      -9.835175     2.969604     0.992158 H          1 UNL1 0.000
    36 H      -8.192766     1.163690     0.912763 H          1 UNL1 0.000
    37 H      -8.167787    -0.030370     2.652181 H          1 UNL1 0.000
    38 H      -9.827125    -1.821922     2.639848 H          1 UNL1 0.000
    39 H      -9.176578    -4.126551     1.994392 H          1 UNL1 0.000
    40 H      -6.843747    -4.623944     1.399953 H          1 UNL1 0.000
    41 H      -1.935034     0.643943     3.921351 H          1 UNL1 0.000
    42 H       1.835947     0.413101     1.920057 H          1 UNL1 0.000
    43 H      -1.807695     0.418629    -0.400319 H          1 UNL1 0.000
    44 C       0.898221     0.322665    -0.640135 C          1 UNL1 0.000
    45 N       0.797347     1.400597    -1.459478 N          1 UNL1 0.000
    46 C       1.552900     1.409546    -2.586900 C          1 UNL1 0.000
    47 C       2.400724     0.371205    -2.933254 C          1 UNL1 0.000
    48 C       2.485183    -0.744619    -2.100820 C          1 UNL1 0.000
    49 C       1.721300    -0.765733    -0.933887 C          1 UNL1 0.000
    50 N       3.197400     0.461378    -4.144195 N          1 UNL1 0.000
    51 O       2.832548     1.264298    -5.013714 O          1 UNL1 0.000
    52 O       4.192642    -0.270919    -4.228700 O          1 UNL1 0.000
    53 H       1.449610     2.306230    -3.193464 H          1 UNL1 0.000
    54 H       3.130740    -1.585994    -2.340748 H          1 UNL1 0.000
    55 H       1.769069    -1.620470    -0.265067 H          1 UNL1 0.000
@<TRIPOS>BOND
     1      1      2   2
     2      2      3   1
     3      3      4   2
     4      4      5   1
     5      5      6   2
     6      6      1   1
     7      4      7   1
     8      7      8   1
     9      8      9   2
    10      9     10   1
    11     10     11   2
    12     11     12   1
    13     12     13   2
    14     13      8   1
    15     13      5   1
    16      1     14   1
    17     14     15   2
    18     15     16   1
    19     16     17   2
    20     17      6   1
    21     12     18   1
    22     18     19   2
    23     19     20   1
    24     20     21   2
    25     21     11   1
    26     22     23   2
    27     23     24   1
    28     24     25   2
    29     25     26   1
    30     26     27   2
    31     27     22   1
    32     24     28   1
    33      7     22   1
    34      2     29   1
    35      3     30   1
    36      9     31   1
    37     10     32   1
    38     14     33   1
    39     15     34   1
    40     16     35   1
    41     17     36   1
    42     18     37   1
    43     19     38   1
    44     20     39   1
    45     21     40   1
    46     23     41   1
    47     25     42   1
    48     27     43   1
    49     44     45   2
    50     45     46   1
    51     46     47   2
    52     47     48   1
    53     48     49   2
    54     49     44   1
    55     50     51   2
    56     50     52   1
    57     47     50   1
    58     46     53   1
    59     48     54   1
    60     49     55   1
    61     26     44   1
