# Produced with molli package
@<TRIPOS>MOLECULE
D_10_Q
52 58 0 0 0
SMALL
USER_CHARGES

@<TRIPOS>ATOM
     1 C      -6.064175     3.706123     1.950643 C          1 UNL1 0.000
     2 C      -4.727668     4.010760     2.199616 C          1 UNL1 0.000
     3 C      -3.738033     3.036527     2.103576 C          1 UNL1 0.000
     4 C      -4.122567     1.709571     1.848731 C          1 UNL1 0.000
     5 C      -5.460868     1.321351     1.700831 C          1 UNL1 0.000
     6 C      -6.446759     2.373687     1.640276 C          1 UNL1 0.000
     7 N      -3.340626     0.591202     1.632441 N          1 UNL1 0.000
     8 C      -4.132440    -0.530017     1.468925 C          1 UNL1 0.000
     9 C      -3.759371    -1.864148     1.234576 C          1 UNL1 0.000
    10 C      -4.749731    -2.842477     1.224791 C          1 UNL1 0.000
    11 C      -6.074072    -2.530196     1.523784 C          1 UNL1 0.000
    12 C      -6.446716    -1.186575     1.797491 C          1 UNL1 0.000
    13 C      -5.463264    -0.136681     1.668137 C          1 UNL1 0.000
    14 C      -7.029587     4.726186     1.967667 C          1 UNL1 0.000
    15 C      -8.355673     4.463863     1.627702 C          1 UNL1 0.000
    16 C      -8.724530     3.185622     1.230408 C          1 UNL1 0.000
    17 C      -7.777963     2.158027     1.219576 C          1 UNL1 0.000
    18 C      -7.761273    -0.957964     2.262432 C          1 UNL1 0.000
    19 C      -8.703190    -1.987402     2.336496 C          1 UNL1 0.000
    20 C      -8.344658    -3.281453     1.984931 C          1 UNL1 0.000
    21 C      -7.033628    -3.553671     1.598049 C          1 UNL1 0.000
    22 C      -1.928119     0.578645     1.655001 C          1 UNL1 0.000
    23 C      -1.271027     0.688552     2.880287 C          1 UNL1 0.000
    24 C       0.115144     0.658026     2.890027 C          1 UNL1 0.000
    25 C       0.844052     0.539454     1.708705 C          1 UNL1 0.000
    26 C       0.186985     0.448343     0.469660 C          1 UNL1 0.000
    27 C      -1.218025     0.458704     0.453225 C          1 UNL1 0.000
    28 F       0.767387     0.746967     4.056243 F          1 UNL1 0.000
    29 H      -4.426241     5.034655     2.412323 H          1 UNL1 0.000
    30 H      -2.692886     3.311530     2.217576 H          1 UNL1 0.000
    31 H      -2.720707    -2.143042     1.081254 H          1 UNL1 0.000
    32 H      -4.455978    -3.874149     1.040348 H          1 UNL1 0.000
    33 H      -6.750204     5.744698     2.228957 H          1 UNL1 0.000
    34 H      -9.089339     5.265386     1.640032 H          1 UNL1 0.000
    35 H      -9.745059     2.985899     0.914257 H          1 UNL1 0.000
    36 H      -8.083726     1.194152     0.825598 H          1 UNL1 0.000
    37 H      -8.057095     0.019084     2.629018 H          1 UNL1 0.000
    38 H      -9.710450    -1.776026     2.686040 H          1 UNL1 0.000
    39 H      -9.073198    -4.085528     2.044624 H          1 UNL1 0.000
    40 H      -6.760255    -4.582788     1.374486 H          1 UNL1 0.000
    41 H      -1.814347     0.778340     3.816006 H          1 UNL1 0.000
    42 H       1.929887     0.547343     1.764272 H          1 UNL1 0.000
    43 H      -1.748650     0.406808    -0.497121 H          1 UNL1 0.000
    44 C       0.955051     0.385723    -0.772517 C          1 UNL1 0.000
    45 N       0.934088     1.503450    -1.542010 N          1 UNL1 0.000
    46 C       1.693728     1.463727    -2.661648 C          1 UNL1 0.000
    47 C       2.439043     0.352448    -3.016466 C          1 UNL1 0.000
    48 N       2.459594    -0.772750    -2.268276 N          1 UNL1 0.000
    49 C       1.705675    -0.728209    -1.141633 C          1 UNL1 0.000
    50 H       1.691599     2.361815    -3.269023 H          1 UNL1 0.000
    51 H       3.044580     0.338955    -3.915603 H          1 UNL1 0.000
    52 H       1.724041    -1.626970    -0.534405 H          1 UNL1 0.000
@<TRIPOS>BOND
     1      1      2   2
     2      2      3   1
     3      3      4   2
     4      4      5   1
     5      5      6   2
     6      6      1   1
     7      4      7   1
     8      7      8   1
     9      8      9   2
    10      9     10   1
    11     10     11   2
    12     11     12   1
    13     12     13   2
    14     13      8   1
    15     13      5   1
    16      1     14   1
    17     14     15   2
    18     15     16   1
    19     16     17   2
    20     17      6   1
    21     12     18   1
    22     18     19   2
    23     19     20   1
    24     20     21   2
    25     21     11   1
    26     22     23   2
    27     23     24   1
    28     24     25   2
    29     25     26   1
    30     26     27   2
    31     27     22   1
    32     24     28   1
    33      7     22   1
    34      2     29   1
    35      3     30   1
    36      9     31   1
    37     10     32   1
    38     14     33   1
    39     15     34   1
    40     16     35   1
    41     17     36   1
    42     18     37   1
    43     19     38   1
    44     20     39   1
    45     21     40   1
    46     23     41   1
    47     25     42   1
    48     27     43   1
    49     44     45   2
    50     45     46   1
    51     46     47   2
    52     47     48   1
    53     48     49   2
    54     49     44   1
    55     46     50   1
    56     47     51   1
    57     49     52   1
    58     26     44   1
