# Produced with molli package
@<TRIPOS>MOLECULE
D_10_L
58 65 0 0 0
SMALL
USER_CHARGES

@<TRIPOS>ATOM
     1 C      -6.077748     3.566981     1.721033 C          1 UNL1 0.000
     2 C      -4.761500     3.909859     1.419975 C          1 UNL1 0.000
     3 C      -3.758739     2.945693     1.376089 C          1 UNL1 0.000
     4 C      -4.113440     1.598042     1.550934 C          1 UNL1 0.000
     5 C      -5.435828     1.176585     1.754131 C          1 UNL1 0.000
     6 C      -6.428411     2.208859     1.950088 C          1 UNL1 0.000
     7 N      -3.305975     0.481246     1.630848 N          1 UNL1 0.000
     8 C      -4.067712    -0.661130     1.779079 C          1 UNL1 0.000
     9 C      -3.652490    -1.995118     1.924799 C          1 UNL1 0.000
    10 C      -4.620784    -2.990553     2.001880 C          1 UNL1 0.000
    11 C      -5.971862    -2.691849     1.845388 C          1 UNL1 0.000
    12 C      -6.389494    -1.349502     1.635750 C          1 UNL1 0.000
    13 C      -5.415702    -0.283914     1.711398 C          1 UNL1 0.000
    14 C      -7.050964     4.573541     1.838640 C          1 UNL1 0.000
    15 C      -8.353927     4.269772     2.228678 C          1 UNL1 0.000
    16 C      -8.688023     2.960836     2.546620 C          1 UNL1 0.000
    17 C      -7.731653     1.948552     2.429651 C          1 UNL1 0.000
    18 C      -7.746063    -1.138285     1.302643 C          1 UNL1 0.000
    19 C      -8.676124    -2.181574     1.315436 C          1 UNL1 0.000
    20 C      -8.266368    -3.472612     1.618233 C          1 UNL1 0.000
    21 C      -6.918358    -3.729481     1.859646 C          1 UNL1 0.000
    22 C      -1.894393     0.504229     1.638674 C          1 UNL1 0.000
    23 C      -1.227346     0.406740     2.859931 C          1 UNL1 0.000
    24 C       0.158858     0.385101     2.853658 C          1 UNL1 0.000
    25 C       0.875481     0.437159     1.660462 C          1 UNL1 0.000
    26 C       0.206229     0.525114     0.428213 C          1 UNL1 0.000
    27 C      -1.197300     0.572467     0.425972 C          1 UNL1 0.000
    28 F       0.820979     0.302886     4.014962 F          1 UNL1 0.000
    29 H      -4.483829     4.951919     1.273416 H          1 UNL1 0.000
    30 H      -2.725508     3.242046     1.216946 H          1 UNL1 0.000
    31 H      -2.599063    -2.257159     1.977288 H          1 UNL1 0.000
    32 H      -4.294399    -4.020323     2.132450 H          1 UNL1 0.000
    33 H      -6.795197     5.612948     1.643911 H          1 UNL1 0.000
    34 H      -9.094255     5.060178     2.318279 H          1 UNL1 0.000
    35 H      -9.687542     2.723654     2.901786 H          1 UNL1 0.000
    36 H      -8.006528     0.957805     2.774418 H          1 UNL1 0.000
    37 H      -8.089589    -0.162714     0.976281 H          1 UNL1 0.000
    38 H      -9.717209    -1.982517     1.074778 H          1 UNL1 0.000
    39 H      -8.986404    -4.286354     1.632511 H          1 UNL1 0.000
    40 H      -6.608508    -4.755622     2.045380 H          1 UNL1 0.000
    41 H      -1.763126     0.353933     3.802659 H          1 UNL1 0.000
    42 H       1.961494     0.406329     1.699396 H          1 UNL1 0.000
    43 H      -1.738155     0.624160    -0.517921 H          1 UNL1 0.000
    44 C       0.967522     0.541234    -0.825312 C          1 UNL1 0.000
    45 C       1.111026     1.725204    -1.561293 C          1 UNL1 0.000
    46 C       1.856342     1.772171    -2.746507 C          1 UNL1 0.000
    47 C       2.456146     0.585977    -3.181031 C          1 UNL1 0.000
    48 C       2.334393    -0.615967    -2.485905 C          1 UNL1 0.000
    49 C       1.582114    -0.636028    -1.294527 C          1 UNL1 0.000
    50 N       3.236954     0.336011    -4.287444 N          1 UNL1 0.000
    51 C       3.607418    -0.982542    -4.317404 C          1 UNL1 0.000
    52 C       3.061685    -1.597824    -3.213993 C          1 UNL1 0.000
    53 H       0.645366     2.642199    -1.203604 H          1 UNL1 0.000
    54 H       1.963889     2.699893    -3.298760 H          1 UNL1 0.000
    55 H       1.480406    -1.566844    -0.742529 H          1 UNL1 0.000
    56 H       3.496004     1.030024    -4.974792 H          1 UNL1 0.000
    57 H       4.225068    -1.367506    -5.117673 H          1 UNL1 0.000
    58 H       3.173526    -2.642455    -2.954753 H          1 UNL1 0.000
@<TRIPOS>BOND
     1      1      2   2
     2      2      3   1
     3      3      4   2
     4      4      5   1
     5      5      6   2
     6      6      1   1
     7      4      7   1
     8      7      8   1
     9      8      9   2
    10      9     10   1
    11     10     11   2
    12     11     12   1
    13     12     13   2
    14     13      8   1
    15     13      5   1
    16      1     14   1
    17     14     15   2
    18     15     16   1
    19     16     17   2
    20     17      6   1
    21     12     18   1
    22     18     19   2
    23     19     20   1
    24     20     21   2
    25     21     11   1
    26     22     23   2
    27     23     24   1
    28     24     25   2
    29     25     26   1
    30     26     27   2
    31     27     22   1
    32     24     28   1
    33      7     22   1
    34      2     29   1
    35      3     30   1
    36      9     31   1
    37     10     32   1
    38     14     33   1
    39     15     34   1
    40     16     35   1
    41     17     36   1
    42     18     37   1
    43     19     38   1
    44     20     39   1
    45     21     40   1
    46     23     41   1
    47     25     42   1
    48     27     43   1
    49     44     45   2
    50     45     46   1
    51     46     47   2
    52     47     48   1
    53     48     49   2
    54     49     44   1
    55     47     50   1
    56     50     51   1
    57     51     52   2
    58     52     48   1
    59     45     53   1
    60     46     54   1
    61     49     55   1
    62     50     56   1
    63     51     57   1
    64     52     58   1
    65     26     44   1
