# Produced with molli package
@<TRIPOS>MOLECULE
D_10_O
53 59 0 0 0
SMALL
USER_CHARGES

@<TRIPOS>ATOM
     1 C      -6.126816     3.550646     2.044471 C          1 UNL1 0.000
     2 C      -4.793948     3.876678     2.288045 C          1 UNL1 0.000
     3 C      -3.792336     2.912510     2.214927 C          1 UNL1 0.000
     4 C      -4.161751     1.577200     1.985055 C          1 UNL1 0.000
     5 C      -5.495338     1.168197     1.851310 C          1 UNL1 0.000
     6 C      -6.494169     2.206137     1.769053 C          1 UNL1 0.000
     7 N      -3.367615     0.464455     1.792830 N          1 UNL1 0.000
     8 C      -4.144301    -0.668564     1.646288 C          1 UNL1 0.000
     9 C      -3.754317    -1.997581     1.411909 C          1 UNL1 0.000
    10 C      -4.732863    -2.987542     1.404991 C          1 UNL1 0.000
    11 C      -6.059222    -2.690944     1.711921 C          1 UNL1 0.000
    12 C      -6.447062    -1.351406     1.985172 C          1 UNL1 0.000
    13 C      -5.478919    -0.290180     1.843431 C          1 UNL1 0.000
    14 C      -7.103681     4.559824     2.030713 C          1 UNL1 0.000
    15 C      -8.425906     4.273367     1.694681 C          1 UNL1 0.000
    16 C      -8.780523     2.979859     1.335463 C          1 UNL1 0.000
    17 C      -7.823001     1.962765     1.356186 C          1 UNL1 0.000
    18 C      -7.760552    -1.136106     2.458538 C          1 UNL1 0.000
    19 C      -8.688494    -2.177209     2.543257 C          1 UNL1 0.000
    20 C      -8.317242    -3.467545     2.190017 C          1 UNL1 0.000
    21 C      -7.006304    -3.725139     1.792677 C          1 UNL1 0.000
    22 C      -1.956842     0.470402     1.794920 C          1 UNL1 0.000
    23 C      -1.280691     0.470203     3.013975 C          1 UNL1 0.000
    24 C       0.105942     0.442528     2.996001 C          1 UNL1 0.000
    25 C       0.814170     0.422414     1.795902 C          1 UNL1 0.000
    26 C       0.135396     0.435469     0.565581 C          1 UNL1 0.000
    27 C      -1.268879     0.457235     0.575832 C          1 UNL1 0.000
    28 F       0.778744     0.431870     4.154137 F          1 UNL1 0.000
    29 H      -4.504817     4.908635     2.477582 H          1 UNL1 0.000
    30 H      -2.750090     3.200047     2.325589 H          1 UNL1 0.000
    31 H      -2.712907    -2.260599     1.248523 H          1 UNL1 0.000
    32 H      -4.427965    -4.014925     1.215496 H          1 UNL1 0.000
    33 H      -6.835888     5.588571     2.262327 H          1 UNL1 0.000
    34 H      -9.167806     5.067210     1.680180 H          1 UNL1 0.000
    35 H      -9.798046     2.759857     1.023205 H          1 UNL1 0.000
    36 H      -8.117998     0.984514     0.990799 H          1 UNL1 0.000
    37 H      -8.064573    -0.160323     2.822569 H          1 UNL1 0.000
    38 H      -9.695155    -1.977788     2.901320 H          1 UNL1 0.000
    39 H      -9.035707    -4.280115     2.256143 H          1 UNL1 0.000
    40 H      -6.722784    -4.750868     1.566415 H          1 UNL1 0.000
    41 H      -1.808465     0.477609     3.962468 H          1 UNL1 0.000
    42 H       1.900498     0.419327     1.829875 H          1 UNL1 0.000
    43 H      -1.814520     0.479763    -0.366932 H          1 UNL1 0.000
    44 C       0.874887     0.447160    -0.698174 C          1 UNL1 0.000
    45 N       0.770988     1.587141    -1.423082 N          1 UNL1 0.000
    46 C       1.462906     1.651025    -2.581833 C          1 UNL1 0.000
    47 C       2.249093     0.620476    -3.068101 C          1 UNL1 0.000
    48 C       2.334029    -0.547900    -2.321162 C          1 UNL1 0.000
    49 C       1.642268    -0.637962    -1.115876 C          1 UNL1 0.000
    50 H       1.366562     2.586279    -3.126133 H          1 UNL1 0.000
    51 H       2.781513     0.726309    -4.006667 H          1 UNL1 0.000
    52 H       2.934997    -1.381882    -2.672230 H          1 UNL1 0.000
    53 H       1.696735    -1.542850    -0.519489 H          1 UNL1 0.000
@<TRIPOS>BOND
     1      1      2   2
     2      2      3   1
     3      3      4   2
     4      4      5   1
     5      5      6   2
     6      6      1   1
     7      4      7   1
     8      7      8   1
     9      8      9   2
    10      9     10   1
    11     10     11   2
    12     11     12   1
    13     12     13   2
    14     13      8   1
    15     13      5   1
    16      1     14   1
    17     14     15   2
    18     15     16   1
    19     16     17   2
    20     17      6   1
    21     12     18   1
    22     18     19   2
    23     19     20   1
    24     20     21   2
    25     21     11   1
    26     22     23   2
    27     23     24   1
    28     24     25   2
    29     25     26   1
    30     26     27   2
    31     27     22   1
    32     24     28   1
    33      7     22   1
    34      2     29   1
    35      3     30   1
    36      9     31   1
    37     10     32   1
    38     14     33   1
    39     15     34   1
    40     16     35   1
    41     17     36   1
    42     18     37   1
    43     19     38   1
    44     20     39   1
    45     21     40   1
    46     23     41   1
    47     25     42   1
    48     27     43   1
    49     44     45   2
    50     45     46   1
    51     46     47   2
    52     47     48   1
    53     48     49   2
    54     49     44   1
    55     46     50   1
    56     47     51   1
    57     48     52   1
    58     49     53   1
    59     26     44   1
