# Produced with molli package
@<TRIPOS>MOLECULE
D_10_M
55 61 0 0 0
SMALL
USER_CHARGES

@<TRIPOS>ATOM
     1 C      -6.034276     3.603532     1.684465 C          1 UNL1 0.000
     2 C      -4.692575     3.942152     1.530541 C          1 UNL1 0.000
     3 C      -3.699384     2.968411     1.532373 C          1 UNL1 0.000
     4 C      -4.078967     1.618735     1.617810 C          1 UNL1 0.000
     5 C      -5.416029     1.204578     1.710294 C          1 UNL1 0.000
     6 C      -6.416310     2.243019     1.840813 C          1 UNL1 0.000
     7 N      -3.284727     0.490810     1.673093 N          1 UNL1 0.000
     8 C      -4.060016    -0.644131     1.801164 C          1 UNL1 0.000
     9 C      -3.665310    -1.978797     1.991476 C          1 UNL1 0.000
    10 C      -4.649062    -2.960818     2.057786 C          1 UNL1 0.000
    11 C      -5.988157    -2.654728     1.827326 C          1 UNL1 0.000
    12 C      -6.376759    -1.317116     1.547089 C          1 UNL1 0.000
    13 C      -5.400688    -0.257562     1.662865 C          1 UNL1 0.000
    14 C      -7.006225     4.617535     1.720506 C          1 UNL1 0.000
    15 C      -8.347531     4.318974     1.949407 C          1 UNL1 0.000
    16 C      -8.723549     3.007837     2.201707 C          1 UNL1 0.000
    17 C      -7.765397     1.990614     2.176759 C          1 UNL1 0.000
    18 C      -7.706758    -1.106065     1.121556 C          1 UNL1 0.000
    19 C      -8.653358    -2.133756     1.131432 C          1 UNL1 0.000
    20 C      -8.282106    -3.413071     1.521150 C          1 UNL1 0.000
    21 C      -6.951653    -3.677054     1.840821 C          1 UNL1 0.000
    22 C      -1.872424     0.503928     1.673295 C          1 UNL1 0.000
    23 C      -1.198205     0.499448     2.893651 C          1 UNL1 0.000
    24 C       0.188255     0.510996     2.878544 C          1 UNL1 0.000
    25 C       0.898103     0.515901     1.679577 C          1 UNL1 0.000
    26 C       0.222229     0.516114     0.447999 C          1 UNL1 0.000
    27 C      -1.182134     0.518101     0.452785 C          1 UNL1 0.000
    28 F       0.859284     0.516475     4.037466 F          1 UNL1 0.000
    29 H      -4.393455     4.985873     1.453797 H          1 UNL1 0.000
    30 H      -2.653963     3.258628     1.471618 H          1 UNL1 0.000
    31 H      -2.618842    -2.248635     2.104315 H          1 UNL1 0.000
    32 H      -4.342943    -3.989190     2.240466 H          1 UNL1 0.000
    33 H      -6.722393     5.658436     1.579388 H          1 UNL1 0.000
    34 H      -9.088486     5.113544     1.966106 H          1 UNL1 0.000
    35 H      -9.758962     2.771686     2.433217 H          1 UNL1 0.000
    36 H      -8.085500     0.999874     2.476841 H          1 UNL1 0.000
    37 H      -8.012761    -0.142971     0.726643 H          1 UNL1 0.000
    38 H      -9.676348    -1.931961     0.824685 H          1 UNL1 0.000
    39 H      -9.016742    -4.213511     1.541141 H          1 UNL1 0.000
    40 H      -6.669117    -4.697380     2.091843 H          1 UNL1 0.000
    41 H      -1.727695     0.495115     3.841306 H          1 UNL1 0.000
    42 H       1.984700     0.522839     1.715828 H          1 UNL1 0.000
    43 H      -1.730766     0.512990    -0.488111 H          1 UNL1 0.000
    44 C       0.983096     0.505815    -0.805387 C          1 UNL1 0.000
    45 C       1.164203     1.681932    -1.548425 C          1 UNL1 0.000
    46 C       1.933483     1.679032    -2.717728 C          1 UNL1 0.000
    47 C       2.529385     0.495808    -3.163684 C          1 UNL1 0.000
    48 C       2.347420    -0.684479    -2.438313 C          1 UNL1 0.000
    49 C       1.581018    -0.677302    -1.267956 C          1 UNL1 0.000
    50 C       3.330269     0.494041    -4.354005 C          1 UNL1 0.000
    51 N       3.981084     0.492287    -5.313614 N          1 UNL1 0.000
    52 H       0.719135     2.615926    -1.209429 H          1 UNL1 0.000
    53 H       2.069220     2.607489    -3.269781 H          1 UNL1 0.000
    54 H       2.804022    -1.614748    -2.771997 H          1 UNL1 0.000
    55 H       1.456349    -1.605093    -0.711575 H          1 UNL1 0.000
@<TRIPOS>BOND
     1      1      2   2
     2      2      3   1
     3      3      4   2
     4      4      5   1
     5      5      6   2
     6      6      1   1
     7      4      7   1
     8      7      8   1
     9      8      9   2
    10      9     10   1
    11     10     11   2
    12     11     12   1
    13     12     13   2
    14     13      8   1
    15     13      5   1
    16      1     14   1
    17     14     15   2
    18     15     16   1
    19     16     17   2
    20     17      6   1
    21     12     18   1
    22     18     19   2
    23     19     20   1
    24     20     21   2
    25     21     11   1
    26     22     23   2
    27     23     24   1
    28     24     25   2
    29     25     26   1
    30     26     27   2
    31     27     22   1
    32     24     28   1
    33      7     22   1
    34      2     29   1
    35      3     30   1
    36      9     31   1
    37     10     32   1
    38     14     33   1
    39     15     34   1
    40     16     35   1
    41     17     36   1
    42     18     37   1
    43     19     38   1
    44     20     39   1
    45     21     40   1
    46     23     41   1
    47     25     42   1
    48     27     43   1
    49     44     45   2
    50     45     46   1
    51     46     47   2
    52     47     48   1
    53     48     49   2
    54     49     44   1
    55     50     51   3
    56     47     50   1
    57     45     52   1
    58     46     53   1
    59     48     54   1
    60     49     55   1
    61     26     44   1
