# Produced with molli package
@<TRIPOS>MOLECULE
D_10_P
58 64 0 0 0
SMALL
USER_CHARGES

@<TRIPOS>ATOM
     1 C      -6.104752     3.676667     2.027791 C          1 UNL1 0.000
     2 C      -4.773238     3.993888     2.285612 C          1 UNL1 0.000
     3 C      -3.772180     3.031851     2.187583 C          1 UNL1 0.000
     4 C      -4.138883     1.703642     1.911139 C          1 UNL1 0.000
     5 C      -5.471538     1.301896     1.752042 C          1 UNL1 0.000
     6 C      -6.471584     2.341300     1.707989 C          1 UNL1 0.000
     7 N      -3.341719     0.599069     1.675099 N          1 UNL1 0.000
     8 C      -4.120253    -0.521806     1.455480 C          1 UNL1 0.000
     9 C      -3.735263    -1.839726     1.156533 C          1 UNL1 0.000
    10 C      -4.715988    -2.827186     1.112249 C          1 UNL1 0.000
    11 C      -6.038706    -2.545170     1.446926 C          1 UNL1 0.000
    12 C      -6.421814    -1.218753     1.783263 C          1 UNL1 0.000
    13 C      -5.453874    -0.153721     1.680593 C          1 UNL1 0.000
    14 C      -7.080548     4.686395     2.043313 C          1 UNL1 0.000
    15 C      -8.402557     4.411766     1.698007 C          1 UNL1 0.000
    16 C      -8.758048     3.129679     1.300058 C          1 UNL1 0.000
    17 C      -7.800791     2.112164     1.288411 C          1 UNL1 0.000
    18 C      -7.728830    -1.022721     2.282160 C          1 UNL1 0.000
    19 C      -8.656608    -2.065728     2.335645 C          1 UNL1 0.000
    20 C      -8.291200    -3.340217     1.922795 C          1 UNL1 0.000
    21 C      -6.986207    -3.580837     1.496093 C          1 UNL1 0.000
    22 C      -1.929117     0.607311     1.702311 C          1 UNL1 0.000
    23 C      -1.276187     0.751820     2.926750 C          1 UNL1 0.000
    24 C       0.110737     0.754234     2.939201 C          1 UNL1 0.000
    25 C       0.843628     0.646655     1.759516 C          1 UNL1 0.000
    26 C       0.188891     0.526545     0.523334 C          1 UNL1 0.000
    27 C      -1.214257     0.487333     0.504033 C          1 UNL1 0.000
    28 F       0.757845     0.868224     4.106295 F          1 UNL1 0.000
    29 H      -4.484591     5.019680     2.507975 H          1 UNL1 0.000
    30 H      -2.731343     3.318337     2.310346 H          1 UNL1 0.000
    31 H      -2.695343    -2.099784     0.979637 H          1 UNL1 0.000
    32 H      -4.413818    -3.845831     0.875233 H          1 UNL1 0.000
    33 H      -6.812300     5.707732     2.306325 H          1 UNL1 0.000
    34 H      -9.144009     5.206049     1.707494 H          1 UNL1 0.000
    35 H      -9.776073     2.919834     0.982571 H          1 UNL1 0.000
    36 H      -8.097608     1.145714     0.893700 H          1 UNL1 0.000
    37 H      -8.026798    -0.062693     2.691301 H          1 UNL1 0.000
    38 H      -9.657824    -1.881610     2.716316 H          1 UNL1 0.000
    39 H      -9.009290    -4.154660     1.965233 H          1 UNL1 0.000
    40 H      -6.706758    -4.596506     1.222978 H          1 UNL1 0.000
    41 H      -1.822593     0.836744     3.861127 H          1 UNL1 0.000
    42 H       1.928992     0.671086     1.812205 H          1 UNL1 0.000
    43 H      -1.741550     0.396681    -0.444856 H          1 UNL1 0.000
    44 C       0.960201     0.474441    -0.720590 C          1 UNL1 0.000
    45 C       1.130197     1.630221    -1.501905 C          1 UNL1 0.000
    46 C       1.880597     1.592792    -2.679577 C          1 UNL1 0.000
    47 C       2.474207     0.398226    -3.075899 C          1 UNL1 0.000
    48 C       2.295681    -0.764765    -2.332323 C          1 UNL1 0.000
    49 C       1.549503    -0.723681    -1.152233 C          1 UNL1 0.000
    50 O       3.182648     0.335193    -4.243997 O          1 UNL1 0.000
    51 C       4.527126     0.763448    -4.025084 C          1 UNL1 0.000
    52 H       0.676293     2.569972    -1.193104 H          1 UNL1 0.000
    53 H       1.994481     2.488636    -3.282691 H          1 UNL1 0.000
    54 H       2.736459    -1.698562    -2.668452 H          1 UNL1 0.000
    55 H       1.423701    -1.635344    -0.572262 H          1 UNL1 0.000
    56 H       5.088910     0.587008    -4.947317 H          1 UNL1 0.000
    57 H       5.005333     0.189129    -3.223351 H          1 UNL1 0.000
    58 H       4.566761     1.835224    -3.802912 H          1 UNL1 0.000
@<TRIPOS>BOND
     1      1      2   2
     2      2      3   1
     3      3      4   2
     4      4      5   1
     5      5      6   2
     6      6      1   1
     7      4      7   1
     8      7      8   1
     9      8      9   2
    10      9     10   1
    11     10     11   2
    12     11     12   1
    13     12     13   2
    14     13      8   1
    15     13      5   1
    16      1     14   1
    17     14     15   2
    18     15     16   1
    19     16     17   2
    20     17      6   1
    21     12     18   1
    22     18     19   2
    23     19     20   1
    24     20     21   2
    25     21     11   1
    26     22     23   2
    27     23     24   1
    28     24     25   2
    29     25     26   1
    30     26     27   2
    31     27     22   1
    32     24     28   1
    33      7     22   1
    34      2     29   1
    35      3     30   1
    36      9     31   1
    37     10     32   1
    38     14     33   1
    39     15     34   1
    40     16     35   1
    41     17     36   1
    42     18     37   1
    43     19     38   1
    44     20     39   1
    45     21     40   1
    46     23     41   1
    47     25     42   1
    48     27     43   1
    49     44     45   2
    50     45     46   1
    51     46     47   2
    52     47     48   1
    53     48     49   2
    54     49     44   1
    55     50     51   1
    56     47     50   1
    57     45     52   1
    58     46     53   1
    59     48     54   1
    60     49     55   1
    61     51     56   1
    62     51     57   1
    63     51     58   1
    64     26     44   1
