# Produced with molli package
@<TRIPOS>MOLECULE
D_10_K
56 62 0 0 0
SMALL
USER_CHARGES

@<TRIPOS>ATOM
     1 C      -6.037243     3.657783     1.964774 C          1 UNL1 0.000
     2 C      -4.703321     3.940870     2.250295 C          1 UNL1 0.000
     3 C      -3.728213     2.949444     2.188236 C          1 UNL1 0.000
     4 C      -4.127728     1.628828     1.923248 C          1 UNL1 0.000
     5 C      -5.467770     1.261814     1.742012 C          1 UNL1 0.000
     6 C      -6.434847     2.329326     1.654587 C          1 UNL1 0.000
     7 N      -3.359323     0.497796     1.725946 N          1 UNL1 0.000
     8 C      -4.163491    -0.607698     1.526807 C          1 UNL1 0.000
     9 C      -3.806629    -1.942977     1.275338 C          1 UNL1 0.000
    10 C      -4.813051    -2.903713     1.225979 C          1 UNL1 0.000
    11 C      -6.137522    -2.575088     1.507517 C          1 UNL1 0.000
    12 C      -6.493061    -1.230518     1.798671 C          1 UNL1 0.000
    13 C      -5.491602    -0.195613     1.702227 C          1 UNL1 0.000
    14 C      -6.983932     4.695027     1.944314 C          1 UNL1 0.000
    15 C      -8.304620     4.453073     1.570187 C          1 UNL1 0.000
    16 C      -8.686568     3.176823     1.178649 C          1 UNL1 0.000
    17 C      -7.759012     2.132360     1.203794 C          1 UNL1 0.000
    18 C      -7.810538    -0.986183     2.246378 C          1 UNL1 0.000
    19 C      -8.770006    -2.000850     2.288740 C          1 UNL1 0.000
    20 C      -8.427766    -3.294430     1.918507 C          1 UNL1 0.000
    21 C      -7.115711    -3.582459     1.546416 C          1 UNL1 0.000
    22 C      -1.948063     0.470293     1.758212 C          1 UNL1 0.000
    23 C      -1.297504     0.543181     2.989422 C          1 UNL1 0.000
    24 C       0.088585     0.507867     3.004009 C          1 UNL1 0.000
    25 C       0.821988     0.427321     1.821881 C          1 UNL1 0.000
    26 C       0.169835     0.377525     0.578741 C          1 UNL1 0.000
    27 C      -1.233815     0.383220     0.556225 C          1 UNL1 0.000
    28 F       0.736045     0.558794     4.175197 F          1 UNL1 0.000
    29 H      -4.391229     4.960783     2.467351 H          1 UNL1 0.000
    30 H      -2.682802     3.206532     2.334986 H          1 UNL1 0.000
    31 H      -2.769504    -2.235488     1.136669 H          1 UNL1 0.000
    32 H      -4.533244    -3.936384     1.025748 H          1 UNL1 0.000
    33 H      -6.693514     5.711497     2.201931 H          1 UNL1 0.000
    34 H      -9.023375     5.267931     1.552498 H          1 UNL1 0.000
    35 H      -9.702130     2.991801     0.838380 H          1 UNL1 0.000
    36 H      -8.073318     1.169785     0.813504 H          1 UNL1 0.000
    37 H      -8.095016    -0.009460     2.623658 H          1 UNL1 0.000
    38 H      -9.778692    -1.779143     2.627599 H          1 UNL1 0.000
    39 H      -9.170724    -4.086772     1.952210 H          1 UNL1 0.000
    40 H      -6.856712    -4.611818     1.307130 H          1 UNL1 0.000
    41 H      -1.845054     0.606115     3.924834 H          1 UNL1 0.000
    42 H       1.907453     0.421712     1.881207 H          1 UNL1 0.000
    43 H      -1.764387     0.343752    -0.394292 H          1 UNL1 0.000
    44 C       0.946617     0.352989    -0.664539 C          1 UNL1 0.000
    45 C       1.010907     1.492415    -1.485871 C          1 UNL1 0.000
    46 C       1.777588     1.493860    -2.654923 C          1 UNL1 0.000
    47 C       2.487843     0.342180    -3.009971 C          1 UNL1 0.000
    48 C       2.432165    -0.806109    -2.211752 C          1 UNL1 0.000
    49 C       1.662750    -0.794319    -1.044002 C          1 UNL1 0.000
    50 N       3.305449     0.341085    -4.226072 N          1 UNL1 0.000
    51 O       4.175385    -0.534760    -4.332329 O          1 UNL1 0.000
    52 O       3.078025     1.217738    -5.072078 O          1 UNL1 0.000
    53 H       0.471963     2.397043    -1.206330 H          1 UNL1 0.000
    54 H       1.818271     2.394320    -3.264593 H          1 UNL1 0.000
    55 H       2.977227    -1.708408    -2.481487 H          1 UNL1 0.000
    56 H       1.624238    -1.690298    -0.425971 H          1 UNL1 0.000
@<TRIPOS>BOND
     1      1      2   2
     2      2      3   1
     3      3      4   2
     4      4      5   1
     5      5      6   2
     6      6      1   1
     7      4      7   1
     8      7      8   1
     9      8      9   2
    10      9     10   1
    11     10     11   2
    12     11     12   1
    13     12     13   2
    14     13      8   1
    15     13      5   1
    16      1     14   1
    17     14     15   2
    18     15     16   1
    19     16     17   2
    20     17      6   1
    21     12     18   1
    22     18     19   2
    23     19     20   1
    24     20     21   2
    25     21     11   1
    26     22     23   2
    27     23     24   1
    28     24     25   2
    29     25     26   1
    30     26     27   2
    31     27     22   1
    32     24     28   1
    33      7     22   1
    34      2     29   1
    35      3     30   1
    36      9     31   1
    37     10     32   1
    38     14     33   1
    39     15     34   1
    40     16     35   1
    41     17     36   1
    42     18     37   1
    43     19     38   1
    44     20     39   1
    45     21     40   1
    46     23     41   1
    47     25     42   1
    48     27     43   1
    49     44     45   2
    50     45     46   1
    51     46     47   2
    52     47     48   1
    53     48     49   2
    54     49     44   1
    55     50     51   2
    56     50     52   1
    57     47     50   1
    58     45     53   1
    59     46     54   1
    60     48     55   1
    61     49     56   1
    62     26     44   1
