# Produced with molli package
@<TRIPOS>MOLECULE
D_1_N
51 57 0 0 0
SMALL
USER_CHARGES

@<TRIPOS>ATOM
     1 C      -6.832185     3.588223     0.577563 C          1 UNL1 0.000
     2 C      -5.500942     3.926130     0.806086 C          1 UNL1 0.000
     3 C      -4.498534     2.962744     0.766544 C          1 UNL1 0.000
     4 C      -4.865004     1.618367     0.586292 C          1 UNL1 0.000
     5 C      -6.197439     1.198974     0.478463 C          1 UNL1 0.000
     6 C      -7.198108     2.232111     0.352016 C          1 UNL1 0.000
     7 N      -4.064880     0.498334     0.484114 N          1 UNL1 0.000
     8 C      -4.835180    -0.643075     0.392946 C          1 UNL1 0.000
     9 C      -4.435830    -1.976010     0.197465 C          1 UNL1 0.000
    10 C      -5.412636    -2.965951     0.172375 C          1 UNL1 0.000
    11 C      -6.747140    -2.666454     0.432907 C          1 UNL1 0.000
    12 C      -7.144508    -1.322122     0.676195 C          1 UNL1 0.000
    13 C      -6.176132    -0.261451     0.531108 C          1 UNL1 0.000
    14 C      -7.809803     4.594793     0.534447 C          1 UNL1 0.000
    15 C      -9.132826     4.296462     0.215524 C          1 UNL1 0.000
    16 C      -9.486958     2.990775    -0.098430 C          1 UNL1 0.000
    17 C      -8.528075     1.975833    -0.047202 C          1 UNL1 0.000
    18 C      -8.470584    -1.104437     1.109181 C          1 UNL1 0.000
    19 C      -9.400404    -2.145041     1.175901 C          1 UNL1 0.000
    20 C      -9.019140    -3.438501     0.842811 C          1 UNL1 0.000
    21 C      -7.696565    -3.698811     0.490587 C          1 UNL1 0.000
    22 C      -2.653535     0.519145     0.470503 C          1 UNL1 0.000
    23 C      -1.955143     0.156085     1.624732 C          1 UNL1 0.000
    24 C      -0.560392     0.194126     1.611145 C          1 UNL1 0.000
    25 C       0.122602     0.577442     0.448511 C          1 UNL1 0.000
    26 C      -0.594750     0.925261    -0.705059 C          1 UNL1 0.000
    27 C      -1.989564     0.907338    -0.695605 C          1 UNL1 0.000
    28 H      -5.214531     4.964195     0.966027 H          1 UNL1 0.000
    29 H      -3.457925     3.252154     0.886793 H          1 UNL1 0.000
    30 H      -3.390585    -2.235775     0.052803 H          1 UNL1 0.000
    31 H      -5.101900    -3.994864    -0.001693 H          1 UNL1 0.000
    32 H      -7.542324     5.631320     0.731503 H          1 UNL1 0.000
    33 H      -9.875987     5.088228     0.178917 H          1 UNL1 0.000
    34 H     -10.505715     2.759501    -0.397808 H          1 UNL1 0.000
    35 H      -8.824337     0.986123    -0.378963 H          1 UNL1 0.000
    36 H      -8.784722    -0.124906     1.455159 H          1 UNL1 0.000
    37 H     -10.417357    -1.943543     1.501591 H          1 UNL1 0.000
    38 H      -9.740016    -4.250009     0.890344 H          1 UNL1 0.000
    39 H      -7.406390    -4.726412     0.278664 H          1 UNL1 0.000
    40 H      -2.481719    -0.128428     2.532681 H          1 UNL1 0.000
    41 H      -0.009107    -0.063576     2.512863 H          1 UNL1 0.000
    42 H      -0.069580     1.201986    -1.616694 H          1 UNL1 0.000
    43 H      -2.542086     1.170575    -1.594488 H          1 UNL1 0.000
    44 C       1.574251     0.603546     0.438269 C          1 UNL1 0.000
    45 C       2.271229     1.794255     0.385660 C          1 UNL1 0.000
    46 S       3.966537     1.554319     0.389022 S          1 UNL1 0.000
    47 C       3.781116    -0.144647     0.462145 C          1 UNL1 0.000
    48 C       2.455712    -0.520016     0.489895 C          1 UNL1 0.000
    49 H       1.872410     2.799344     0.351010 H          1 UNL1 0.000
    50 H       4.651798    -0.785535     0.481822 H          1 UNL1 0.000
    51 H       2.132807    -1.553186     0.533903 H          1 UNL1 0.000
@<TRIPOS>BOND
     1      1      2   2
     2      2      3   1
     3      3      4   2
     4      4      5   1
     5      5      6   2
     6      6      1   1
     7      4      7   1
     8      7      8   1
     9      8      9   2
    10      9     10   1
    11     10     11   2
    12     11     12   1
    13     12     13   2
    14     13      8   1
    15     13      5   1
    16      1     14   1
    17     14     15   2
    18     15     16   1
    19     16     17   2
    20     17      6   1
    21     12     18   1
    22     18     19   2
    23     19     20   1
    24     20     21   2
    25     21     11   1
    26     22     23   2
    27     23     24   1
    28     24     25   2
    29     25     26   1
    30     26     27   2
    31     27     22   1
    32      7     22   1
    33      2     28   1
    34      3     29   1
    35      9     30   1
    36     10     31   1
    37     14     32   1
    38     15     33   1
    39     16     34   1
    40     17     35   1
    41     18     36   1
    42     19     37   1
    43     20     38   1
    44     21     39   1
    45     23     40   1
    46     24     41   1
    47     26     42   1
    48     27     43   1
    49     44     45   2
    50     45     46   1
    51     46     47   1
    52     47     48   2
    53     48     44   1
    54     45     49   1
    55     47     50   1
    56     48     51   1
    57     25     44   1
