# Produced with molli package
@<TRIPOS>MOLECULE
D_1_K
56 62 0 0 0
SMALL
USER_CHARGES

@<TRIPOS>ATOM
     1 C      -6.843307     3.681672     0.512036 C          1 UNL1 0.000
     2 C      -5.513604     4.032468     0.288244 C          1 UNL1 0.000
     3 C      -4.507226     3.070704     0.276743 C          1 UNL1 0.000
     4 C      -4.867142     1.718697     0.403474 C          1 UNL1 0.000
     5 C      -6.197036     1.293586     0.529906 C          1 UNL1 0.000
     6 C      -7.200834     2.318730     0.694744 C          1 UNL1 0.000
     7 N      -4.063189     0.599496     0.500284 N          1 UNL1 0.000
     8 C      -4.832349    -0.544813     0.591432 C          1 UNL1 0.000
     9 C      -4.429856    -1.884061     0.727327 C          1 UNL1 0.000
    10 C      -5.404147    -2.877700     0.716506 C          1 UNL1 0.000
    11 C      -6.742278    -2.571044     0.480508 C          1 UNL1 0.000
    12 C      -7.141724    -1.221776     0.282700 C          1 UNL1 0.000
    13 C      -6.173460    -0.163599     0.451248 C          1 UNL1 0.000
    14 C      -7.826537     4.681563     0.596906 C          1 UNL1 0.000
    15 C      -9.147280     4.364802     0.910082 C          1 UNL1 0.000
    16 C      -9.492001     3.048505     1.184281 C          1 UNL1 0.000
    17 C      -8.526083     2.042827     1.098785 C          1 UNL1 0.000
    18 C      -8.471095    -0.992415    -0.136232 C          1 UNL1 0.000
    19 C      -9.403478    -2.029568    -0.219138 C          1 UNL1 0.000
    20 C      -9.019694    -3.331192     0.073251 C          1 UNL1 0.000
    21 C      -7.692204    -3.602569     0.399564 C          1 UNL1 0.000
    22 C      -2.650822     0.618195     0.512086 C          1 UNL1 0.000
    23 C      -1.976256     0.435064     1.720356 C          1 UNL1 0.000
    24 C      -0.580314     0.429676     1.723418 C          1 UNL1 0.000
    25 C       0.142537     0.586821     0.528400 C          1 UNL1 0.000
    26 C      -0.563046     0.767870    -0.673900 C          1 UNL1 0.000
    27 C      -1.959201     0.792480    -0.687590 C          1 UNL1 0.000
    28 H      -5.231295     5.077834     0.178173 H          1 UNL1 0.000
    29 H      -3.467531     3.371593     0.180232 H          1 UNL1 0.000
    30 H      -3.381832    -2.150770     0.833810 H          1 UNL1 0.000
    31 H      -5.089079    -3.912380     0.837508 H          1 UNL1 0.000
    32 H      -7.565962     5.725550     0.435639 H          1 UNL1 0.000
    33 H      -9.895613     5.150078     0.974069 H          1 UNL1 0.000
    34 H     -10.508074     2.800241     1.479717 H          1 UNL1 0.000
    35 H      -8.813828     1.043021     1.405905 H          1 UNL1 0.000
    36 H      -8.787387    -0.005024    -0.455738 H          1 UNL1 0.000
    37 H     -10.424378    -1.817330    -0.525717 H          1 UNL1 0.000
    38 H      -9.742304    -4.140495     0.013364 H          1 UNL1 0.000
    39 H      -7.399851    -4.635767     0.575199 H          1 UNL1 0.000
    40 H      -2.521143     0.312766     2.653527 H          1 UNL1 0.000
    41 H      -0.052471     0.300913     2.666665 H          1 UNL1 0.000
    42 H      -0.021420     0.877624    -1.611788 H          1 UNL1 0.000
    43 H      -2.490175     0.915991    -1.628554 H          1 UNL1 0.000
    44 C       1.607496     0.548389     0.534425 C          1 UNL1 0.000
    45 C       2.355262     1.740040     0.533816 C          1 UNL1 0.000
    46 C       3.751409     1.707413     0.544480 C          1 UNL1 0.000
    47 C       4.392179     0.467430     0.542728 C          1 UNL1 0.000
    48 C       3.681382    -0.733464     0.537827 C          1 UNL1 0.000
    49 C       2.286088    -0.684643     0.540256 C          1 UNL1 0.000
    50 N       5.839682     0.424970     0.544535 N          1 UNL1 0.000
    51 O       6.413716     0.872436     1.546098 O          1 UNL1 0.000
    52 O       6.389248    -0.055353    -0.454471 O          1 UNL1 0.000
    53 H       1.844015     2.701645     0.529522 H          1 UNL1 0.000
    54 H       4.319695     2.634188     0.548418 H          1 UNL1 0.000
    55 H       4.194774    -1.691692     0.536841 H          1 UNL1 0.000
    56 H       1.720138    -1.615245     0.541346 H          1 UNL1 0.000
@<TRIPOS>BOND
     1      1      2   2
     2      2      3   1
     3      3      4   2
     4      4      5   1
     5      5      6   2
     6      6      1   1
     7      4      7   1
     8      7      8   1
     9      8      9   2
    10      9     10   1
    11     10     11   2
    12     11     12   1
    13     12     13   2
    14     13      8   1
    15     13      5   1
    16      1     14   1
    17     14     15   2
    18     15     16   1
    19     16     17   2
    20     17      6   1
    21     12     18   1
    22     18     19   2
    23     19     20   1
    24     20     21   2
    25     21     11   1
    26     22     23   2
    27     23     24   1
    28     24     25   2
    29     25     26   1
    30     26     27   2
    31     27     22   1
    32      7     22   1
    33      2     28   1
    34      3     29   1
    35      9     30   1
    36     10     31   1
    37     14     32   1
    38     15     33   1
    39     16     34   1
    40     17     35   1
    41     18     36   1
    42     19     37   1
    43     20     38   1
    44     21     39   1
    45     23     40   1
    46     24     41   1
    47     26     42   1
    48     27     43   1
    49     44     45   2
    50     45     46   1
    51     46     47   2
    52     47     48   1
    53     48     49   2
    54     49     44   1
    55     50     51   2
    56     50     52   1
    57     47     50   1
    58     45     53   1
    59     46     54   1
    60     48     55   1
    61     49     56   1
    62     25     44   1
