# Produced with molli package
@<TRIPOS>MOLECULE
D_1_O
53 59 0 0 0
SMALL
USER_CHARGES

@<TRIPOS>ATOM
     1 C      -6.759757     3.634123     0.257255 C          1 UNL1 0.000
     2 C      -5.427215     3.937853    -0.005858 C          1 UNL1 0.000
     3 C      -4.442129     2.956289     0.054550 C          1 UNL1 0.000
     4 C      -4.822379     1.622036     0.287296 C          1 UNL1 0.000
     5 C      -6.161382     1.240954     0.452054 C          1 UNL1 0.000
     6 C      -7.143257     2.296187     0.539468 C          1 UNL1 0.000
     7 N      -4.038602     0.497946     0.501705 N          1 UNL1 0.000
     8 C      -4.844923    -0.613110     0.702444 C          1 UNL1 0.000
     9 C      -4.493346    -1.951133     0.958070 C          1 UNL1 0.000
    10 C      -5.494689    -2.917516     0.991942 C          1 UNL1 0.000
    11 C      -6.811831    -2.596632     0.676862 C          1 UNL1 0.000
    12 C      -7.164495    -1.255536     0.371087 C          1 UNL1 0.000
    13 C      -6.171986    -0.213771     0.490317 C          1 UNL1 0.000
    14 C      -7.716887     4.661494     0.291232 C          1 UNL1 0.000
    15 C      -9.037253     4.398717     0.651584 C          1 UNL1 0.000
    16 C      -9.408553     3.110699     1.013089 C          1 UNL1 0.000
    17 C      -8.469616     2.076618     0.973973 C          1 UNL1 0.000
    18 C      -8.469271    -1.019718    -0.116639 C          1 UNL1 0.000
    19 C      -9.421015    -2.040399    -0.185521 C          1 UNL1 0.000
    20 C      -9.083529    -3.330718     0.200320 C          1 UNL1 0.000
    21 C      -7.782331    -3.610019     0.614112 C          1 UNL1 0.000
    22 C      -2.619117     0.484506     0.510473 C          1 UNL1 0.000
    23 C      -1.938274     0.013998     1.636421 C          1 UNL1 0.000
    24 C      -0.541375     0.005705     1.640849 C          1 UNL1 0.000
    25 C       0.188436     0.449938     0.524229 C          1 UNL1 0.000
    26 C      -0.519267     0.923013    -0.593908 C          1 UNL1 0.000
    27 C      -1.915748     0.945734    -0.605400 C          1 UNL1 0.000
    28 H      -5.121753     4.965312    -0.193958 H          1 UNL1 0.000
    29 H      -3.398637     3.239170    -0.054116 H          1 UNL1 0.000
    30 H      -3.459303    -2.248612     1.106033 H          1 UNL1 0.000
    31 H      -5.212512    -3.947722     1.199852 H          1 UNL1 0.000
    32 H      -7.433674     5.686050     0.059396 H          1 UNL1 0.000
    33 H      -9.763520     5.206326     0.683647 H          1 UNL1 0.000
    34 H     -10.424032     2.908075     1.343181 H          1 UNL1 0.000
    35 H      -8.776832     1.103566     1.343001 H          1 UNL1 0.000
    36 H      -8.746831    -0.044773    -0.504172 H          1 UNL1 0.000
    37 H     -10.419508    -1.825637    -0.557212 H          1 UNL1 0.000
    38 H      -9.820200    -4.127667     0.146054 H          1 UNL1 0.000
    39 H      -7.524119    -4.636657     0.864923 H          1 UNL1 0.000
    40 H      -2.476875    -0.304878     2.525970 H          1 UNL1 0.000
    41 H      -0.017654    -0.327834     2.534792 H          1 UNL1 0.000
    42 H       0.028034     1.270775    -1.468712 H          1 UNL1 0.000
    43 H      -2.435398     1.290457    -1.496454 H          1 UNL1 0.000
    44 C       1.654187     0.423516     0.520631 C          1 UNL1 0.000
    45 N       2.265545     1.626781     0.393462 N          1 UNL1 0.000
    46 C       3.616287     1.640452     0.401869 C          1 UNL1 0.000
    47 C       4.398880     0.503714     0.512432 C          1 UNL1 0.000
    48 C       3.759439    -0.724232     0.625130 C          1 UNL1 0.000
    49 C       2.367929    -0.768280     0.634866 C          1 UNL1 0.000
    50 H       4.067791     2.624581     0.315069 H          1 UNL1 0.000
    51 H       5.480639     0.574315     0.508605 H          1 UNL1 0.000
    52 H       4.337185    -1.640529     0.703956 H          1 UNL1 0.000
    53 H       1.850335    -1.718705     0.715660 H          1 UNL1 0.000
@<TRIPOS>BOND
     1      1      2   2
     2      2      3   1
     3      3      4   2
     4      4      5   1
     5      5      6   2
     6      6      1   1
     7      4      7   1
     8      7      8   1
     9      8      9   2
    10      9     10   1
    11     10     11   2
    12     11     12   1
    13     12     13   2
    14     13      8   1
    15     13      5   1
    16      1     14   1
    17     14     15   2
    18     15     16   1
    19     16     17   2
    20     17      6   1
    21     12     18   1
    22     18     19   2
    23     19     20   1
    24     20     21   2
    25     21     11   1
    26     22     23   2
    27     23     24   1
    28     24     25   2
    29     25     26   1
    30     26     27   2
    31     27     22   1
    32      7     22   1
    33      2     28   1
    34      3     29   1
    35      9     30   1
    36     10     31   1
    37     14     32   1
    38     15     33   1
    39     16     34   1
    40     17     35   1
    41     18     36   1
    42     19     37   1
    43     20     38   1
    44     21     39   1
    45     23     40   1
    46     24     41   1
    47     26     42   1
    48     27     43   1
    49     44     45   2
    50     45     46   1
    51     46     47   2
    52     47     48   1
    53     48     49   2
    54     49     44   1
    55     46     50   1
    56     47     51   1
    57     48     52   1
    58     49     53   1
    59     25     44   1
