# Produced with molli package
@<TRIPOS>MOLECULE
D_1_R
55 61 0 0 0
SMALL
USER_CHARGES

@<TRIPOS>ATOM
     1 C      -6.717024     3.622103     0.678079 C          1 UNL1 0.000
     2 C      -5.377158     3.930824     0.894041 C          1 UNL1 0.000
     3 C      -4.394228     2.950515     0.818523 C          1 UNL1 0.000
     4 C      -4.785817     1.616864     0.613908 C          1 UNL1 0.000
     5 C      -6.125172     1.225674     0.473453 C          1 UNL1 0.000
     6 C      -7.109116     2.283505     0.399829 C          1 UNL1 0.000
     7 N      -4.002076     0.492800     0.445706 N          1 UNL1 0.000
     8 C      -4.789848    -0.632067     0.298593 C          1 UNL1 0.000
     9 C      -4.402312    -1.969189     0.108593 C          1 UNL1 0.000
    10 C      -5.385442    -2.951458     0.072688 C          1 UNL1 0.000
    11 C      -6.721722    -2.638554     0.303426 C          1 UNL1 0.000
    12 C      -7.111236    -1.293539     0.554564 C          1 UNL1 0.000
    13 C      -6.126866    -0.237494     0.453315 C          1 UNL1 0.000
    14 C      -7.675993     4.647831     0.699103 C          1 UNL1 0.000
    15 C      -9.011106     4.386898     0.399863 C          1 UNL1 0.000
    16 C      -9.392642     3.105464     0.027403 C          1 UNL1 0.000
    17 C      -8.448907     2.074447     0.004218 C          1 UNL1 0.000
    18 C      -8.447451    -1.076730     0.958544 C          1 UNL1 0.000
    19 C      -9.389472    -2.109563     0.975557 C          1 UNL1 0.000
    20 C      -9.009435    -3.400736     0.637715 C          1 UNL1 0.000
    21 C      -7.678153    -3.666815     0.326676 C          1 UNL1 0.000
    22 C      -2.589143     0.486228     0.459376 C          1 UNL1 0.000
    23 C      -1.919156     0.644655     1.673783 C          1 UNL1 0.000
    24 C      -0.523788     0.618384     1.685834 C          1 UNL1 0.000
    25 C       0.204635     0.455785     0.493938 C          1 UNL1 0.000
    26 C      -0.496758     0.320630    -0.717137 C          1 UNL1 0.000
    27 C      -1.893032     0.320819    -0.739338 C          1 UNL1 0.000
    28 H      -5.068392     4.959558     1.069897 H          1 UNL1 0.000
    29 H      -3.346356     3.223553     0.913326 H          1 UNL1 0.000
    30 H      -3.356500    -2.244108     0.001700 H          1 UNL1 0.000
    31 H      -5.079226    -3.984029    -0.083834 H          1 UNL1 0.000
    32 H      -7.385388     5.669136     0.936959 H          1 UNL1 0.000
    33 H      -9.741493     5.191065     0.422664 H          1 UNL1 0.000
    34 H     -10.421536     2.905425    -0.259990 H          1 UNL1 0.000
    35 H      -8.767167     1.112109    -0.381277 H          1 UNL1 0.000
    36 H      -8.765008    -0.105879     1.321452 H          1 UNL1 0.000
    37 H     -10.415301    -1.902731     1.269178 H          1 UNL1 0.000
    38 H      -9.737727    -4.207018     0.650582 H          1 UNL1 0.000
    39 H      -7.388370    -4.694311     0.116122 H          1 UNL1 0.000
    40 H      -2.467328     0.766091     2.605162 H          1 UNL1 0.000
    41 H       0.001276     0.731976     2.632499 H          1 UNL1 0.000
    42 H       0.050695     0.221898    -1.652807 H          1 UNL1 0.000
    43 H      -2.420287     0.221854    -1.685309 H          1 UNL1 0.000
    44 C       1.666543     0.420013     0.517445 C          1 UNL1 0.000
    45 N       2.291115     1.606877     0.307114 N          1 UNL1 0.000
    46 C       3.646932     1.616435     0.337170 C          1 UNL1 0.000
    47 C       4.401129     0.479881     0.574959 C          1 UNL1 0.000
    48 C       3.757028    -0.738095     0.787273 C          1 UNL1 0.000
    49 C       2.363432    -0.766236     0.754499 C          1 UNL1 0.000
    50 N       5.847415     0.573181     0.607167 N          1 UNL1 0.000
    51 O       6.378915     1.469387    -0.059836 O          1 UNL1 0.000
    52 O       6.455682    -0.254663     1.300911 O          1 UNL1 0.000
    53 H       4.098058     2.591245     0.169475 H          1 UNL1 0.000
    54 H       4.315647    -1.652171     0.972759 H          1 UNL1 0.000
    55 H       1.827981    -1.697990     0.913669 H          1 UNL1 0.000
@<TRIPOS>BOND
     1      1      2   2
     2      2      3   1
     3      3      4   2
     4      4      5   1
     5      5      6   2
     6      6      1   1
     7      4      7   1
     8      7      8   1
     9      8      9   2
    10      9     10   1
    11     10     11   2
    12     11     12   1
    13     12     13   2
    14     13      8   1
    15     13      5   1
    16      1     14   1
    17     14     15   2
    18     15     16   1
    19     16     17   2
    20     17      6   1
    21     12     18   1
    22     18     19   2
    23     19     20   1
    24     20     21   2
    25     21     11   1
    26     22     23   2
    27     23     24   1
    28     24     25   2
    29     25     26   1
    30     26     27   2
    31     27     22   1
    32      7     22   1
    33      2     28   1
    34      3     29   1
    35      9     30   1
    36     10     31   1
    37     14     32   1
    38     15     33   1
    39     16     34   1
    40     17     35   1
    41     18     36   1
    42     19     37   1
    43     20     38   1
    44     21     39   1
    45     23     40   1
    46     24     41   1
    47     26     42   1
    48     27     43   1
    49     44     45   2
    50     45     46   1
    51     46     47   2
    52     47     48   1
    53     48     49   2
    54     49     44   1
    55     50     51   2
    56     50     52   1
    57     47     50   1
    58     46     53   1
    59     48     54   1
    60     49     55   1
    61     25     44   1
