# Produced with molli package
@<TRIPOS>MOLECULE
D_1_S
59 65 0 0 0
SMALL
USER_CHARGES

@<TRIPOS>ATOM
     1 C      -6.788249     3.627665     0.684884 C          1 UNL1 0.000
     2 C      -5.456270     3.959842     0.917029 C          1 UNL1 0.000
     3 C      -4.456594     2.992791     0.874120 C          1 UNL1 0.000
     4 C      -4.822046     1.649049     0.682130 C          1 UNL1 0.000
     5 C      -6.155406     1.238799     0.541661 C          1 UNL1 0.000
     6 C      -7.155735     2.276550     0.441570 C          1 UNL1 0.000
     7 N      -4.022017     0.534423     0.502476 N          1 UNL1 0.000
     8 C      -4.802073    -0.597820     0.344769 C          1 UNL1 0.000
     9 C      -4.413304    -1.931789     0.130994 C          1 UNL1 0.000
    10 C      -5.391585    -2.921013     0.114892 C          1 UNL1 0.000
    11 C      -6.720760    -2.621336     0.400249 C          1 UNL1 0.000
    12 C      -7.108794    -1.281350     0.671330 C          1 UNL1 0.000
    13 C      -6.138181    -0.219685     0.537496 C          1 UNL1 0.000
    14 C      -7.762572     4.638730     0.647950 C          1 UNL1 0.000
    15 C      -9.086732     4.347123     0.326537 C          1 UNL1 0.000
    16 C      -9.444234     3.046056     0.000394 C          1 UNL1 0.000
    17 C      -8.486663     2.028953     0.037435 C          1 UNL1 0.000
    18 C      -8.426866    -1.068281     1.132836 C          1 UNL1 0.000
    19 C      -9.358981    -2.107454     1.196963 C          1 UNL1 0.000
    20 C      -8.986526    -3.396204     0.839672 C          1 UNL1 0.000
    21 C      -7.670175    -3.654394     0.462645 C          1 UNL1 0.000
    22 C      -2.606348     0.547272     0.487318 C          1 UNL1 0.000
    23 C      -1.910752     0.887322     1.649471 C          1 UNL1 0.000
    24 C      -0.514664     0.870427     1.636767 C          1 UNL1 0.000
    25 C       0.192326     0.539065     0.468031 C          1 UNL1 0.000
    26 C      -0.531370     0.217363    -0.692457 C          1 UNL1 0.000
    27 C      -1.927741     0.208302    -0.685498 C          1 UNL1 0.000
    28 H      -5.165694     4.997165     1.072440 H          1 UNL1 0.000
    29 H      -3.415245     3.288283     0.968812 H          1 UNL1 0.000
    30 H      -3.369869    -2.202707    -0.004073 H          1 UNL1 0.000
    31 H      -5.083778    -3.949847    -0.061730 H          1 UNL1 0.000
    32 H      -7.491610     5.672811     0.850956 H          1 UNL1 0.000
    33 H      -9.827589     5.141479     0.296927 H          1 UNL1 0.000
    34 H     -10.463953     2.819656    -0.299936 H          1 UNL1 0.000
    35 H      -8.785746     1.045492    -0.309095 H          1 UNL1 0.000
    36 H      -8.732697    -0.095148     1.502488 H          1 UNL1 0.000
    37 H     -10.370290    -1.907868     1.541484 H          1 UNL1 0.000
    38 H      -9.708131    -4.207182     0.887958 H          1 UNL1 0.000
    39 H      -7.384871    -4.679541     0.235574 H          1 UNL1 0.000
    40 H      -2.438292     1.126195     2.570132 H          1 UNL1 0.000
    41 H       0.026556     1.105181     2.551707 H          1 UNL1 0.000
    42 H      -0.003998    -0.019960    -1.614585 H          1 UNL1 0.000
    43 H      -2.469706    -0.029856    -1.597926 H          1 UNL1 0.000
    44 C       1.657855     0.524558     0.464205 C          1 UNL1 0.000
    45 C       2.386976     1.720532     0.469049 C          1 UNL1 0.000
    46 C       3.785225     1.704115     0.484021 C          1 UNL1 0.000
    47 C       4.485003     0.490044     0.495633 C          1 UNL1 0.000
    48 C       3.764538    -0.708598     0.475978 C          1 UNL1 0.000
    49 C       2.363696    -0.687689     0.463408 C          1 UNL1 0.000
    50 C       5.978523     0.537663     0.528981 C          1 UNL1 0.000
    51 C       6.768646    -0.744715     0.562989 C          1 UNL1 0.000
    52 O       6.552960     1.625888     0.500517 O          1 UNL1 0.000
    53 H       1.868495     2.677642     0.457857 H          1 UNL1 0.000
    54 H       4.325644     2.649532     0.487344 H          1 UNL1 0.000
    55 H       4.257998    -1.675239     0.472713 H          1 UNL1 0.000
    56 H       1.818938    -1.630741     0.463580 H          1 UNL1 0.000
    57 H       6.889561    -1.127542    -0.453356 H          1 UNL1 0.000
    58 H       6.302838    -1.494697     1.204969 H          1 UNL1 0.000
    59 H       7.756755    -0.538334     0.987132 H          1 UNL1 0.000
@<TRIPOS>BOND
     1      1      2   2
     2      2      3   1
     3      3      4   2
     4      4      5   1
     5      5      6   2
     6      6      1   1
     7      4      7   1
     8      7      8   1
     9      8      9   2
    10      9     10   1
    11     10     11   2
    12     11     12   1
    13     12     13   2
    14     13      8   1
    15     13      5   1
    16      1     14   1
    17     14     15   2
    18     15     16   1
    19     16     17   2
    20     17      6   1
    21     12     18   1
    22     18     19   2
    23     19     20   1
    24     20     21   2
    25     21     11   1
    26     22     23   2
    27     23     24   1
    28     24     25   2
    29     25     26   1
    30     26     27   2
    31     27     22   1
    32      7     22   1
    33      2     28   1
    34      3     29   1
    35      9     30   1
    36     10     31   1
    37     14     32   1
    38     15     33   1
    39     16     34   1
    40     17     35   1
    41     18     36   1
    42     19     37   1
    43     20     38   1
    44     21     39   1
    45     23     40   1
    46     24     41   1
    47     26     42   1
    48     27     43   1
    49     44     45   2
    50     45     46   1
    51     46     47   2
    52     47     48   1
    53     48     49   2
    54     49     44   1
    55     47     50   1
    56     50     51   1
    57     50     52   2
    58     45     53   1
    59     46     54   1
    60     48     55   1
    61     49     56   1
    62     51     57   1
    63     51     58   1
    64     51     59   1
    65     25     44   1
