# Produced with molli package
@<TRIPOS>MOLECULE
D_1_P
58 64 0 0 0
SMALL
USER_CHARGES

@<TRIPOS>ATOM
     1 C      -6.710902     3.589956     0.295974 C          1 UNL1 0.000
     2 C      -5.382226     3.893555     0.017514 C          1 UNL1 0.000
     3 C      -4.398653     2.910757     0.053482 C          1 UNL1 0.000
     4 C      -4.778919     1.575895     0.282089 C          1 UNL1 0.000
     5 C      -6.113994     1.192821     0.473020 C          1 UNL1 0.000
     6 C      -7.093225     2.250318     0.581419 C          1 UNL1 0.000
     7 N      -3.990723     0.451455     0.463575 N          1 UNL1 0.000
     8 C      -4.785915    -0.663265     0.668358 C          1 UNL1 0.000
     9 C      -4.414701    -2.000700     0.894023 C          1 UNL1 0.000
    10 C      -5.408501    -2.971917     0.959243 C          1 UNL1 0.000
    11 C      -6.740412    -2.654149     0.711324 C          1 UNL1 0.000
    12 C      -7.114098    -1.312081     0.428389 C          1 UNL1 0.000
    13 C      -6.121146    -0.265530     0.509229 C          1 UNL1 0.000
    14 C      -7.665449     4.618752     0.339435 C          1 UNL1 0.000
    15 C      -8.983198     4.359316     0.708945 C          1 UNL1 0.000
    16 C      -9.352444     3.072479     1.077200 C          1 UNL1 0.000
    17 C      -8.414402     2.037462     1.033454 C          1 UNL1 0.000
    18 C      -8.443136    -1.084906     0.007105 C          1 UNL1 0.000
    19 C      -9.394156    -2.108716    -0.008089 C          1 UNL1 0.000
    20 C      -9.031476    -3.397742     0.358618 C          1 UNL1 0.000
    21 C      -7.708114    -3.671580     0.697281 C          1 UNL1 0.000
    22 C      -2.573373     0.447443     0.452332 C          1 UNL1 0.000
    23 C      -1.876397     0.064946     1.601282 C          1 UNL1 0.000
    24 C      -0.480615     0.105545     1.598613 C          1 UNL1 0.000
    25 C       0.225245     0.504229     0.451621 C          1 UNL1 0.000
    26 C      -0.496663     0.861329    -0.699092 C          1 UNL1 0.000
    27 C      -1.892501     0.846178    -0.700642 C          1 UNL1 0.000
    28 H      -5.078296     4.922306    -0.168406 H          1 UNL1 0.000
    29 H      -3.356319     3.189268    -0.074118 H          1 UNL1 0.000
    30 H      -3.372573    -2.289471     0.998832 H          1 UNL1 0.000
    31 H      -5.112288    -4.002925     1.144008 H          1 UNL1 0.000
    32 H      -7.382556     5.643097     0.103972 H          1 UNL1 0.000
    33 H      -9.708584     5.167478     0.743378 H          1 UNL1 0.000
    34 H     -10.365546     2.872078     1.415505 H          1 UNL1 0.000
    35 H      -8.719307     1.067818     1.413074 H          1 UNL1 0.000
    36 H      -8.745139    -0.113319    -0.369756 H          1 UNL1 0.000
    37 H     -10.412823    -1.897687    -0.322576 H          1 UNL1 0.000
    38 H      -9.767306    -4.197107     0.347126 H          1 UNL1 0.000
    39 H      -7.432119    -4.697721     0.932203 H          1 UNL1 0.000
    40 H      -2.402921    -0.217894     2.509978 H          1 UNL1 0.000
    41 H       0.060966    -0.155924     2.505981 H          1 UNL1 0.000
    42 H       0.033082     1.156100    -1.603114 H          1 UNL1 0.000
    43 H      -2.431412     1.118105    -1.605361 H          1 UNL1 0.000
    44 C       1.688026     0.574160     0.462746 C          1 UNL1 0.000
    45 C       2.468904    -0.582439     0.318321 C          1 UNL1 0.000
    46 C       3.865550    -0.507159     0.326237 C          1 UNL1 0.000
    47 C       4.491638     0.729736     0.472139 C          1 UNL1 0.000
    48 C       3.730826     1.882102     0.648862 C          1 UNL1 0.000
    49 C       2.336898     1.806818     0.631223 C          1 UNL1 0.000
    50 O       5.850965     0.875047     0.519633 O          1 UNL1 0.000
    51 C       6.496335     0.322922    -0.625998 C          1 UNL1 0.000
    52 H       1.989081    -1.552156     0.202119 H          1 UNL1 0.000
    53 H       4.446939    -1.419537     0.239524 H          1 UNL1 0.000
    54 H       4.222048     2.840431     0.791531 H          1 UNL1 0.000
    55 H       1.754587     2.716850     0.759874 H          1 UNL1 0.000
    56 H       7.528148     0.687264    -0.633960 H          1 UNL1 0.000
    57 H       6.016204     0.653533    -1.554227 H          1 UNL1 0.000
    58 H       6.527574    -0.769615    -0.574200 H          1 UNL1 0.000
@<TRIPOS>BOND
     1      1      2   2
     2      2      3   1
     3      3      4   2
     4      4      5   1
     5      5      6   2
     6      6      1   1
     7      4      7   1
     8      7      8   1
     9      8      9   2
    10      9     10   1
    11     10     11   2
    12     11     12   1
    13     12     13   2
    14     13      8   1
    15     13      5   1
    16      1     14   1
    17     14     15   2
    18     15     16   1
    19     16     17   2
    20     17      6   1
    21     12     18   1
    22     18     19   2
    23     19     20   1
    24     20     21   2
    25     21     11   1
    26     22     23   2
    27     23     24   1
    28     24     25   2
    29     25     26   1
    30     26     27   2
    31     27     22   1
    32      7     22   1
    33      2     28   1
    34      3     29   1
    35      9     30   1
    36     10     31   1
    37     14     32   1
    38     15     33   1
    39     16     34   1
    40     17     35   1
    41     18     36   1
    42     19     37   1
    43     20     38   1
    44     21     39   1
    45     23     40   1
    46     24     41   1
    47     26     42   1
    48     27     43   1
    49     44     45   2
    50     45     46   1
    51     46     47   2
    52     47     48   1
    53     48     49   2
    54     49     44   1
    55     50     51   1
    56     47     50   1
    57     45     52   1
    58     46     53   1
    59     48     54   1
    60     49     55   1
    61     51     56   1
    62     51     57   1
    63     51     58   1
    64     25     44   1
