# Produced with molli package
@<TRIPOS>MOLECULE
D_1_L
58 65 0 0 0
SMALL
USER_CHARGES

@<TRIPOS>ATOM
     1 C      -6.752091     3.681330     0.418583 C          1 UNL1 0.000
     2 C      -5.420794     3.989643     0.149726 C          1 UNL1 0.000
     3 C      -4.437521     3.004557     0.158043 C          1 UNL1 0.000
     4 C      -4.824612     1.667360     0.352016 C          1 UNL1 0.000
     5 C      -6.161036     1.281194     0.520431 C          1 UNL1 0.000
     6 C      -7.137634     2.334600     0.660701 C          1 UNL1 0.000
     7 N      -4.044084     0.535492     0.499145 N          1 UNL1 0.000
     8 C      -4.840477    -0.583330     0.658525 C          1 UNL1 0.000
     9 C      -4.472549    -1.925553     0.854734 C          1 UNL1 0.000
    10 C      -5.471432    -2.894514     0.879030 C          1 UNL1 0.000
    11 C      -6.800163    -2.566398     0.621103 C          1 UNL1 0.000
    12 C      -7.166286    -1.215106     0.374435 C          1 UNL1 0.000
    13 C      -6.172265    -0.176803     0.502006 C          1 UNL1 0.000
    14 C      -7.708122     4.707235     0.493144 C          1 UNL1 0.000
    15 C      -9.026709     4.435374     0.853221 C          1 UNL1 0.000
    16 C      -9.397028     3.137385     1.179556 C          1 UNL1 0.000
    17 C      -8.459339     2.104875     1.102592 C          1 UNL1 0.000
    18 C      -8.487649    -0.966402    -0.057888 C          1 UNL1 0.000
    19 C      -9.442593    -1.983920    -0.120070 C          1 UNL1 0.000
    20 C      -9.090733    -3.285570     0.212421 C          1 UNL1 0.000
    21 C      -7.773572    -3.576758     0.562507 C          1 UNL1 0.000
    22 C      -2.630704     0.525288     0.493704 C          1 UNL1 0.000
    23 C      -1.943737     0.290980     1.686335 C          1 UNL1 0.000
    24 C      -0.547772     0.298869     1.677822 C          1 UNL1 0.000
    25 C       0.164274     0.517484     0.485974 C          1 UNL1 0.000
    26 C      -0.552961     0.737009    -0.702561 C          1 UNL1 0.000
    27 C      -1.948990     0.753282    -0.703210 C          1 UNL1 0.000
    28 H      -5.115931     5.022733    -0.008597 H          1 UNL1 0.000
    29 H      -3.393362     3.277785     0.032393 H          1 UNL1 0.000
    30 H      -3.431649    -2.214728     0.971596 H          1 UNL1 0.000
    31 H      -5.181618    -3.931404     1.040933 H          1 UNL1 0.000
    32 H      -7.425995     5.738530     0.289551 H          1 UNL1 0.000
    33 H      -9.752753     5.241504     0.912370 H          1 UNL1 0.000
    34 H     -10.410466     2.925716     1.509926 H          1 UNL1 0.000
    35 H      -8.764163     1.121883     1.447017 H          1 UNL1 0.000
    36 H      -8.778978     0.019537    -0.405895 H          1 UNL1 0.000
    37 H     -10.455237    -1.758024    -0.443310 H          1 UNL1 0.000
    38 H      -9.830453    -4.079988     0.165703 H          1 UNL1 0.000
    39 H      -7.506568    -4.611100     0.771117 H          1 UNL1 0.000
    40 H      -2.477706     0.134724     2.620582 H          1 UNL1 0.000
    41 H      -0.008695     0.143582     2.610716 H          1 UNL1 0.000
    42 H      -0.018140     0.889398    -1.638333 H          1 UNL1 0.000
    43 H      -2.487378     0.913517    -1.634250 H          1 UNL1 0.000
    44 C       1.630479     0.522083     0.484528 C          1 UNL1 0.000
    45 C       2.336706     1.732474     0.438881 C          1 UNL1 0.000
    46 C       3.736261     1.772004     0.442678 C          1 UNL1 0.000
    47 C       4.415568     0.550957     0.489663 C          1 UNL1 0.000
    48 C       3.755219    -0.676129     0.532754 C          1 UNL1 0.000
    49 C       2.346031    -0.688684     0.532224 C          1 UNL1 0.000
    50 N       5.766348     0.284575     0.504080 N          1 UNL1 0.000
    51 C       5.981718    -1.067402     0.550108 C          1 UNL1 0.000
    52 C       4.753718    -1.688428     0.568465 C          1 UNL1 0.000
    53 H       1.788745     2.673106     0.406640 H          1 UNL1 0.000
    54 H       4.265543     2.718504     0.411438 H          1 UNL1 0.000
    55 H       1.816641    -1.637318     0.563215 H          1 UNL1 0.000
    56 H       6.489453     0.990127     0.482359 H          1 UNL1 0.000
    57 H       6.985863    -1.469079     0.565794 H          1 UNL1 0.000
    58 H       4.587624    -2.757041     0.603803 H          1 UNL1 0.000
@<TRIPOS>BOND
     1      1      2   2
     2      2      3   1
     3      3      4   2
     4      4      5   1
     5      5      6   2
     6      6      1   1
     7      4      7   1
     8      7      8   1
     9      8      9   2
    10      9     10   1
    11     10     11   2
    12     11     12   1
    13     12     13   2
    14     13      8   1
    15     13      5   1
    16      1     14   1
    17     14     15   2
    18     15     16   1
    19     16     17   2
    20     17      6   1
    21     12     18   1
    22     18     19   2
    23     19     20   1
    24     20     21   2
    25     21     11   1
    26     22     23   2
    27     23     24   1
    28     24     25   2
    29     25     26   1
    30     26     27   2
    31     27     22   1
    32      7     22   1
    33      2     28   1
    34      3     29   1
    35      9     30   1
    36     10     31   1
    37     14     32   1
    38     15     33   1
    39     16     34   1
    40     17     35   1
    41     18     36   1
    42     19     37   1
    43     20     38   1
    44     21     39   1
    45     23     40   1
    46     24     41   1
    47     26     42   1
    48     27     43   1
    49     44     45   2
    50     45     46   1
    51     46     47   2
    52     47     48   1
    53     48     49   2
    54     49     44   1
    55     47     50   1
    56     50     51   1
    57     51     52   2
    58     52     48   1
    59     45     53   1
    60     46     54   1
    61     49     55   1
    62     50     56   1
    63     51     57   1
    64     52     58   1
    65     25     44   1
