# Produced with molli package
@<TRIPOS>MOLECULE
D_1_M
55 61 0 0 0
SMALL
USER_CHARGES

@<TRIPOS>ATOM
     1 C      -6.751586     3.621570     0.556552 C          1 UNL1 0.000
     2 C      -5.405359     3.958215     0.662054 C          1 UNL1 0.000
     3 C      -4.414513     2.983873     0.615784 C          1 UNL1 0.000
     4 C      -4.797894     1.634197     0.547967 C          1 UNL1 0.000
     5 C      -6.138080     1.220514     0.490338 C          1 UNL1 0.000
     6 C      -7.139305     2.264344     0.385793 C          1 UNL1 0.000
     7 N      -4.003018     0.505986     0.513259 N          1 UNL1 0.000
     8 C      -4.779222    -0.634236     0.460179 C          1 UNL1 0.000
     9 C      -4.375453    -1.974897     0.346723 C          1 UNL1 0.000
    10 C      -5.352290    -2.962374     0.284367 C          1 UNL1 0.000
    11 C      -6.700256    -2.650996     0.436470 C          1 UNL1 0.000
    12 C      -7.102845    -1.307344     0.666612 C          1 UNL1 0.000
    13 C      -6.123957    -0.244877     0.554507 C          1 UNL1 0.000
    14 C      -7.723939     4.635766     0.591860 C          1 UNL1 0.000
    15 C      -9.074210     4.342946     0.416641 C          1 UNL1 0.000
    16 C      -9.458625     3.041402     0.132397 C          1 UNL1 0.000
    17 C      -8.498647     2.026318     0.083260 C          1 UNL1 0.000
    18 C      -8.452820    -1.100317     1.026531 C          1 UNL1 0.000
    19 C      -9.399261    -2.127438     0.970789 C          1 UNL1 0.000
    20 C      -9.007335    -3.410131     0.617521 C          1 UNL1 0.000
    21 C      -7.659651    -3.676514     0.387708 C          1 UNL1 0.000
    22 C      -2.588874     0.515216     0.514256 C          1 UNL1 0.000
    23 C      -1.904452     0.384059     1.723927 C          1 UNL1 0.000
    24 C      -0.506339     0.384515     1.717802 C          1 UNL1 0.000
    25 C       0.210061     0.507932     0.514623 C          1 UNL1 0.000
    26 C      -0.506699     0.636509    -0.688247 C          1 UNL1 0.000
    27 C      -1.904340     0.643631    -0.695074 C          1 UNL1 0.000
    28 H      -5.102564     5.000336     0.744340 H          1 UNL1 0.000
    29 H      -3.366915     3.270808     0.653911 H          1 UNL1 0.000
    30 H      -3.324536    -2.242969     0.276728 H          1 UNL1 0.000
    31 H      -5.036136    -3.995681     0.155302 H          1 UNL1 0.000
    32 H      -7.434007     5.671709     0.755289 H          1 UNL1 0.000
    33 H      -9.816040     5.135366     0.464299 H          1 UNL1 0.000
    34 H     -10.502555     2.810685    -0.063506 H          1 UNL1 0.000
    35 H      -8.827469     1.048846    -0.247541 H          1 UNL1 0.000
    36 H      -8.780250    -0.139438     1.406176 H          1 UNL1 0.000
    37 H     -10.438624    -1.921314     1.212748 H          1 UNL1 0.000
    38 H      -9.739969    -4.210336     0.558815 H          1 UNL1 0.000
    39 H      -7.361420    -4.700097     0.170387 H          1 UNL1 0.000
    40 H      -2.442096     0.288046     2.664294 H          1 UNL1 0.000
    41 H       0.028345     0.289357     2.661322 H          1 UNL1 0.000
    42 H       0.028481     0.726685    -1.631981 H          1 UNL1 0.000
    43 H      -2.441400     0.738027    -1.635816 H          1 UNL1 0.000
    44 C       1.677024     0.500278     0.510485 C          1 UNL1 0.000
    45 C       2.401071     1.702367     0.502726 C          1 UNL1 0.000
    46 C       3.800478     1.696942     0.486121 C          1 UNL1 0.000
    47 C       4.497221     0.485392     0.475348 C          1 UNL1 0.000
    48 C       3.787853    -0.718796     0.486130 C          1 UNL1 0.000
    49 C       2.388463    -0.709457     0.504835 C          1 UNL1 0.000
    50 C       5.931727     0.477978     0.449967 C          1 UNL1 0.000
    51 N       7.091066     0.472109     0.427622 N          1 UNL1 0.000
    52 H       1.873699     2.654892     0.509609 H          1 UNL1 0.000
    53 H       4.337995     2.643569     0.479604 H          1 UNL1 0.000
    54 H       4.315407    -1.671008     0.477135 H          1 UNL1 0.000
    55 H       1.851166    -1.656461     0.508625 H          1 UNL1 0.000
@<TRIPOS>BOND
     1      1      2   2
     2      2      3   1
     3      3      4   2
     4      4      5   1
     5      5      6   2
     6      6      1   1
     7      4      7   1
     8      7      8   1
     9      8      9   2
    10      9     10   1
    11     10     11   2
    12     11     12   1
    13     12     13   2
    14     13      8   1
    15     13      5   1
    16      1     14   1
    17     14     15   2
    18     15     16   1
    19     16     17   2
    20     17      6   1
    21     12     18   1
    22     18     19   2
    23     19     20   1
    24     20     21   2
    25     21     11   1
    26     22     23   2
    27     23     24   1
    28     24     25   2
    29     25     26   1
    30     26     27   2
    31     27     22   1
    32      7     22   1
    33      2     28   1
    34      3     29   1
    35      9     30   1
    36     10     31   1
    37     14     32   1
    38     15     33   1
    39     16     34   1
    40     17     35   1
    41     18     36   1
    42     19     37   1
    43     20     38   1
    44     21     39   1
    45     23     40   1
    46     24     41   1
    47     26     42   1
    48     27     43   1
    49     44     45   2
    50     45     46   1
    51     46     47   2
    52     47     48   1
    53     48     49   2
    54     49     44   1
    55     50     51   3
    56     47     50   1
    57     45     52   1
    58     46     53   1
    59     48     54   1
    60     49     55   1
    61     25     44   1
