# Produced with molli package
@<TRIPOS>MOLECULE
D_1_Q
52 58 0 0 0
SMALL
USER_CHARGES

@<TRIPOS>ATOM
     1 C      -6.827837     3.633949     0.754155 C          1 UNL1 0.000
     2 C      -5.501107     3.938532     1.040708 C          1 UNL1 0.000
     3 C      -4.512889     2.959671     0.990522 C          1 UNL1 0.000
     4 C      -4.884805     1.623931     0.748971 C          1 UNL1 0.000
     5 C      -6.220939     1.242229     0.560567 C          1 UNL1 0.000
     6 C      -7.202995     2.296191     0.458311 C          1 UNL1 0.000
     7 N      -4.095465     0.501122     0.541749 N          1 UNL1 0.000
     8 C      -4.899560    -0.611304     0.332586 C          1 UNL1 0.000
     9 C      -4.544842    -1.951506     0.088783 C          1 UNL1 0.000
    10 C      -5.545348    -2.917122     0.033036 C          1 UNL1 0.000
    11 C      -6.868234    -2.595735     0.317770 C          1 UNL1 0.000
    12 C      -7.226382    -1.253944     0.617121 C          1 UNL1 0.000
    13 C      -6.230627    -0.212522     0.518968 C          1 UNL1 0.000
    14 C      -7.786523     4.659076     0.708873 C          1 UNL1 0.000
    15 C      -9.099262     4.396191     0.322688 C          1 UNL1 0.000
    16 C      -9.460691     3.109463    -0.053945 C          1 UNL1 0.000
    17 C      -8.520247     2.077360    -0.002899 C          1 UNL1 0.000
    18 C      -8.541369    -1.019523     1.076725 C          1 UNL1 0.000
    19 C      -9.495098    -2.039643     1.122722 C          1 UNL1 0.000
    20 C      -9.149868    -3.329723     0.742128 C          1 UNL1 0.000
    21 C      -7.840081    -3.608417     0.357433 C          1 UNL1 0.000
    22 C      -2.673987     0.489901     0.538696 C          1 UNL1 0.000
    23 C      -1.970453     0.999272     1.632632 C          1 UNL1 0.000
    24 C      -0.572943     0.975793     1.624426 C          1 UNL1 0.000
    25 C       0.141607     0.450539     0.532882 C          1 UNL1 0.000
    26 C      -0.590466    -0.041073    -0.563202 C          1 UNL1 0.000
    27 C      -1.987930    -0.029110    -0.562355 C          1 UNL1 0.000
    28 H      -5.201136     4.966103     1.238584 H          1 UNL1 0.000
    29 H      -3.472843     3.247534     1.114779 H          1 UNL1 0.000
    30 H      -3.508811    -2.252708    -0.034276 H          1 UNL1 0.000
    31 H      -5.258927    -3.947947    -0.167744 H          1 UNL1 0.000
    32 H      -7.509890     5.683125     0.952080 H          1 UNL1 0.000
    33 H      -9.826707     5.202260     0.281995 H          1 UNL1 0.000
    34 H     -10.469174     2.906883    -0.404645 H          1 UNL1 0.000
    35 H      -8.818402     1.105839    -0.383928 H          1 UNL1 0.000
    36 H      -8.827471    -0.045242     1.460189 H          1 UNL1 0.000
    37 H     -10.501475    -1.825239     1.472426 H          1 UNL1 0.000
    38 H      -9.887878    -4.126330     0.778600 H          1 UNL1 0.000
    39 H      -7.576512    -4.635126     0.110933 H          1 UNL1 0.000
    40 H      -2.489280     1.381602     2.508889 H          1 UNL1 0.000
    41 H      -0.031480     1.363499     2.486682 H          1 UNL1 0.000
    42 H      -0.074452    -0.414983    -1.445969 H          1 UNL1 0.000
    43 H      -2.523050    -0.385015    -1.440292 H          1 UNL1 0.000
    44 C       1.609054     0.425933     0.542514 C          1 UNL1 0.000
    45 N       2.232195     1.581799     0.891941 N          1 UNL1 0.000
    46 C       3.585251     1.555526     0.874619 C          1 UNL1 0.000
    47 C       4.304574     0.421432     0.540092 C          1 UNL1 0.000
    48 N       3.705013    -0.741492     0.206105 N          1 UNL1 0.000
    49 C       2.348660    -0.710534     0.215344 C          1 UNL1 0.000
    50 H       4.080715     2.483263     1.136897 H          1 UNL1 0.000
    51 H       5.388412     0.418553     0.532263 H          1 UNL1 0.000
    52 H       1.865290    -1.647510    -0.041008 H          1 UNL1 0.000
@<TRIPOS>BOND
     1      1      2   2
     2      2      3   1
     3      3      4   2
     4      4      5   1
     5      5      6   2
     6      6      1   1
     7      4      7   1
     8      7      8   1
     9      8      9   2
    10      9     10   1
    11     10     11   2
    12     11     12   1
    13     12     13   2
    14     13      8   1
    15     13      5   1
    16      1     14   1
    17     14     15   2
    18     15     16   1
    19     16     17   2
    20     17      6   1
    21     12     18   1
    22     18     19   2
    23     19     20   1
    24     20     21   2
    25     21     11   1
    26     22     23   2
    27     23     24   1
    28     24     25   2
    29     25     26   1
    30     26     27   2
    31     27     22   1
    32      7     22   1
    33      2     28   1
    34      3     29   1
    35      9     30   1
    36     10     31   1
    37     14     32   1
    38     15     33   1
    39     16     34   1
    40     17     35   1
    41     18     36   1
    42     19     37   1
    43     20     38   1
    44     21     39   1
    45     23     40   1
    46     24     41   1
    47     26     42   1
    48     27     43   1
    49     44     45   2
    50     45     46   1
    51     46     47   2
    52     47     48   1
    53     48     49   2
    54     49     44   1
    55     46     50   1
    56     47     51   1
    57     49     52   1
    58     25     44   1
