# Produced with molli package
@<TRIPOS>MOLECULE
D_1_T
57 63 0 0 0
SMALL
USER_CHARGES

@<TRIPOS>ATOM
     1 C      -6.796181     3.564301     0.481992 C          1 UNL1 0.000
     2 C      -5.466446     3.897472     0.233642 C          1 UNL1 0.000
     3 C      -4.465760     2.930620     0.257274 C          1 UNL1 0.000
     4 C      -4.833508     1.588226     0.445970 C          1 UNL1 0.000
     5 C      -6.164815     1.174744     0.590057 C          1 UNL1 0.000
     6 C      -7.161620     2.211188     0.720128 C          1 UNL1 0.000
     7 N      -4.035445     0.468795     0.570066 N          1 UNL1 0.000
     8 C      -4.807824    -0.667196     0.707115 C          1 UNL1 0.000
     9 C      -4.409223    -1.999371     0.906299 C          1 UNL1 0.000
    10 C      -5.387680    -2.988025     0.942496 C          1 UNL1 0.000
    11 C      -6.724406    -2.687339     0.691275 C          1 UNL1 0.000
    12 C      -7.120319    -1.345141     0.439726 C          1 UNL1 0.000
    13 C      -6.148098    -0.285203     0.563639 C          1 UNL1 0.000
    14 C      -7.771681     4.573310     0.535500 C          1 UNL1 0.000
    15 C      -9.091457     4.278534     0.872494 C          1 UNL1 0.000
    16 C      -9.443576     2.975476     1.197690 C          1 UNL1 0.000
    17 C      -8.486276     1.959471     1.140839 C          1 UNL1 0.000
    18 C      -8.449191    -1.127554     0.013845 C          1 UNL1 0.000
    19 C      -9.382888    -2.165700    -0.034467 C          1 UNL1 0.000
    20 C      -9.002245    -3.456905     0.306208 C          1 UNL1 0.000
    21 C      -7.676858    -3.718339     0.648356 C          1 UNL1 0.000
    22 C      -2.624655     0.481627     0.563282 C          1 UNL1 0.000
    23 C      -1.938546     0.537641     1.776941 C          1 UNL1 0.000
    24 C      -0.542923     0.533641     1.764176 C          1 UNL1 0.000
    25 C       0.166414     0.466194     0.552335 C          1 UNL1 0.000
    26 C      -0.552276     0.410584    -0.654328 C          1 UNL1 0.000
    27 C      -1.948342     0.421035    -0.655961 C          1 UNL1 0.000
    28 H      -5.178925     4.935069     0.073859 H          1 UNL1 0.000
    29 H      -3.424945     3.217953     0.133730 H          1 UNL1 0.000
    30 H      -3.361967    -2.261914     1.030495 H          1 UNL1 0.000
    31 H      -5.076646    -4.017061     1.113270 H          1 UNL1 0.000
    32 H      -7.505004     5.608484     0.331808 H          1 UNL1 0.000
    33 H      -9.833089     5.071540     0.914461 H          1 UNL1 0.000
    34 H     -10.458814     2.746624     1.510856 H          1 UNL1 0.000
    35 H      -8.779186     0.972906     1.484239 H          1 UNL1 0.000
    36 H      -8.763029    -0.150967    -0.340036 H          1 UNL1 0.000
    37 H     -10.402238    -1.963552    -0.352505 H          1 UNL1 0.000
    38 H      -9.725793    -4.266796     0.272150 H          1 UNL1 0.000
    39 H      -7.387291    -4.744879     0.864340 H          1 UNL1 0.000
    40 H      -2.472843     0.585775     2.722532 H          1 UNL1 0.000
    41 H      -0.001374     0.577328     2.707422 H          1 UNL1 0.000
    42 H      -0.018534     0.356756    -1.601472 H          1 UNL1 0.000
    43 H      -2.490571     0.371986    -1.597041 H          1 UNL1 0.000
    44 C       1.631098     0.446519     0.550335 C          1 UNL1 0.000
    45 C       2.364998     1.639061     0.609240 C          1 UNL1 0.000
    46 C       3.763116     1.619583     0.618202 C          1 UNL1 0.000
    47 C       4.454993     0.405063     0.568957 C          1 UNL1 0.000
    48 C       3.727523    -0.788723     0.508698 C          1 UNL1 0.000
    49 C       2.329979    -0.767297     0.498051 C          1 UNL1 0.000
    50 C       5.954320     0.367920     0.588390 C          1 UNL1 0.000
    51 H       1.847074     2.595124     0.648845 H          1 UNL1 0.000
    52 H       4.304821     2.561448     0.665529 H          1 UNL1 0.000
    53 H       4.245009    -1.744774     0.472160 H          1 UNL1 0.000
    54 H       1.784717    -1.707848     0.454422 H          1 UNL1 0.000
    55 H       6.331413    -0.137611    -0.306429 H          1 UNL1 0.000
    56 H       6.306061    -0.164211     1.478131 H          1 UNL1 0.000
    57 H       6.381218     1.376024     0.608468 H          1 UNL1 0.000
@<TRIPOS>BOND
     1      1      2   2
     2      2      3   1
     3      3      4   2
     4      4      5   1
     5      5      6   2
     6      6      1   1
     7      4      7   1
     8      7      8   1
     9      8      9   2
    10      9     10   1
    11     10     11   2
    12     11     12   1
    13     12     13   2
    14     13      8   1
    15     13      5   1
    16      1     14   1
    17     14     15   2
    18     15     16   1
    19     16     17   2
    20     17      6   1
    21     12     18   1
    22     18     19   2
    23     19     20   1
    24     20     21   2
    25     21     11   1
    26     22     23   2
    27     23     24   1
    28     24     25   2
    29     25     26   1
    30     26     27   2
    31     27     22   1
    32      7     22   1
    33      2     28   1
    34      3     29   1
    35      9     30   1
    36     10     31   1
    37     14     32   1
    38     15     33   1
    39     16     34   1
    40     17     35   1
    41     18     36   1
    42     19     37   1
    43     20     38   1
    44     21     39   1
    45     23     40   1
    46     24     41   1
    47     26     42   1
    48     27     43   1
    49     44     45   2
    50     45     46   1
    51     46     47   2
    52     47     48   1
    53     48     49   2
    54     49     44   1
    55     47     50   1
    56     45     51   1
    57     46     52   1
    58     48     53   1
    59     49     54   1
    60     50     55   1
    61     50     56   1
    62     50     57   1
    63     25     44   1
