# Produced with molli package
@<TRIPOS>MOLECULE
D_2_K
56 62 0 0 0
SMALL
USER_CHARGES

@<TRIPOS>ATOM
     1 C      -4.648981     3.667214     1.909482 C          1 UNL1 0.000
     2 C      -3.318799     3.983358     2.177923 C          1 UNL1 0.000
     3 C      -2.325061     3.009977     2.131771 C          1 UNL1 0.000
     4 C      -2.701151     1.676252     1.900594 C          1 UNL1 0.000
     5 C      -4.035062     1.277751     1.742984 C          1 UNL1 0.000
     6 C      -5.022910     2.323753     1.636270 C          1 UNL1 0.000
     7 N      -1.911420     0.558370     1.706829 N          1 UNL1 0.000
     8 C      -2.696486    -0.572270     1.575543 C          1 UNL1 0.000
     9 C      -2.314382    -1.909251     1.374020 C          1 UNL1 0.000
    10 C      -3.301084    -2.890045     1.350605 C          1 UNL1 0.000
    11 C      -4.631066    -2.577633     1.620981 C          1 UNL1 0.000
    12 C      -5.011425    -1.232221     1.876063 C          1 UNL1 0.000
    13 C      -4.031036    -0.180561     1.744266 C          1 UNL1 0.000
    14 C      -5.616151     4.684817     1.869794 C          1 UNL1 0.000
    15 C      -6.934578     4.407399     1.512461 C          1 UNL1 0.000
    16 C      -7.294202     3.114227     1.156940 C          1 UNL1 0.000
    17 C      -6.346044     2.089216     1.201298 C          1 UNL1 0.000
    18 C      -6.331810    -1.002398     2.322376 C          1 UNL1 0.000
    19 C      -7.271189    -2.034249     2.394325 C          1 UNL1 0.000
    20 C      -6.905807    -3.329855     2.054431 C          1 UNL1 0.000
    21 C      -5.589560    -3.602123     1.686224 C          1 UNL1 0.000
    22 C      -0.495299     0.564765     1.687860 C          1 UNL1 0.000
    23 C       0.168660     0.660591     2.919114 C          1 UNL1 0.000
    24 C       1.559844     0.620879     2.950968 C          1 UNL1 0.000
    25 C       2.278867     0.491562     1.763975 C          1 UNL1 0.000
    26 C       1.609547     0.408432     0.538128 C          1 UNL1 0.000
    27 C       0.206371     0.447158     0.470521 C          1 UNL1 0.000
    28 H      -3.025358     5.014180     2.367341 H          1 UNL1 0.000
    29 H      -1.282914     3.289030     2.261267 H          1 UNL1 0.000
    30 H      -1.271601    -2.184286     1.243941 H          1 UNL1 0.000
    31 H      -3.001252    -3.922102     1.179475 H          1 UNL1 0.000
    32 H      -5.344129     5.713154     2.098568 H          1 UNL1 0.000
    33 H      -7.669464     5.207213     1.478895 H          1 UNL1 0.000
    34 H      -8.308203     2.900533     0.828992 H          1 UNL1 0.000
    35 H      -6.643651     1.111107     0.837335 H          1 UNL1 0.000
    36 H      -6.633883    -0.021913     2.675193 H          1 UNL1 0.000
    37 H      -8.282779    -1.823522     2.731356 H          1 UNL1 0.000
    38 H      -7.633527    -4.134989     2.109234 H          1 UNL1 0.000
    39 H      -5.311440    -4.631814     1.471178 H          1 UNL1 0.000
    40 H      -0.389586     0.744455     3.849267 H          1 UNL1 0.000
    41 H       2.084607     0.684636     3.901104 H          1 UNL1 0.000
    42 H       3.365754     0.461767     1.789291 H          1 UNL1 0.000
    43 H       2.196802     0.328472    -0.375444 H          1 UNL1 0.000
    44 C      -0.455093     0.417102    -0.843636 C          1 UNL1 0.000
    45 C      -1.068429     1.572830    -1.360940 C          1 UNL1 0.000
    46 C      -1.712272     1.553093    -2.600394 C          1 UNL1 0.000
    47 C      -1.732982     0.365678    -3.337028 C          1 UNL1 0.000
    48 C      -1.120251    -0.794139    -2.852087 C          1 UNL1 0.000
    49 C      -0.483662    -0.761681    -1.608392 C          1 UNL1 0.000
    50 N      -2.396951     0.339131    -4.638334 N          1 UNL1 0.000
    51 O      -1.964608    -0.459937    -5.482875 O          1 UNL1 0.000
    52 O      -3.341257     1.119212    -4.817685 O          1 UNL1 0.000
    53 H      -1.050425     2.501602    -0.792192 H          1 UNL1 0.000
    54 H      -2.184319     2.459236    -2.973577 H          1 UNL1 0.000
    55 H      -1.139334    -1.721141    -3.420965 H          1 UNL1 0.000
    56 H      -0.019170    -1.669576    -1.227370 H          1 UNL1 0.000
@<TRIPOS>BOND
     1      1      2   2
     2      2      3   1
     3      3      4   2
     4      4      5   1
     5      5      6   2
     6      6      1   1
     7      4      7   1
     8      7      8   1
     9      8      9   2
    10      9     10   1
    11     10     11   2
    12     11     12   1
    13     12     13   2
    14     13      8   1
    15     13      5   1
    16      1     14   1
    17     14     15   2
    18     15     16   1
    19     16     17   2
    20     17      6   1
    21     12     18   1
    22     18     19   2
    23     19     20   1
    24     20     21   2
    25     21     11   1
    26     22     23   2
    27     23     24   1
    28     24     25   2
    29     25     26   1
    30     26     27   2
    31     27     22   1
    32      7     22   1
    33      2     28   1
    34      3     29   1
    35      9     30   1
    36     10     31   1
    37     14     32   1
    38     15     33   1
    39     16     34   1
    40     17     35   1
    41     18     36   1
    42     19     37   1
    43     20     38   1
    44     21     39   1
    45     23     40   1
    46     24     41   1
    47     25     42   1
    48     26     43   1
    49     44     45   2
    50     45     46   1
    51     46     47   2
    52     47     48   1
    53     48     49   2
    54     49     44   1
    55     50     51   2
    56     50     52   1
    57     47     50   1
    58     45     53   1
    59     46     54   1
    60     48     55   1
    61     49     56   1
    62     27     44   1
