# Produced with molli package
@<TRIPOS>MOLECULE
D_2_R
55 61 0 0 0
SMALL
USER_CHARGES

@<TRIPOS>ATOM
     1 C      -4.626847     3.649705     1.580957 C          1 UNL1 0.000
     2 C      -3.293412     3.928309     1.291248 C          1 UNL1 0.000
     3 C      -2.326580     2.927554     1.325672 C          1 UNL1 0.000
     4 C      -2.732978     1.601866     1.556520 C          1 UNL1 0.000
     5 C      -4.074587     1.243566     1.746167 C          1 UNL1 0.000
     6 C      -5.031857     2.317834     1.864970 C          1 UNL1 0.000
     7 N      -1.970098     0.456648     1.715337 N          1 UNL1 0.000
     8 C      -2.785689    -0.635568     1.948382 C          1 UNL1 0.000
     9 C      -2.440461    -1.971010     2.214324 C          1 UNL1 0.000
    10 C      -3.456321    -2.919191     2.295571 C          1 UNL1 0.000
    11 C      -4.779604    -2.580783     2.020963 C          1 UNL1 0.000
    12 C      -5.122834    -1.237928     1.708877 C          1 UNL1 0.000
    13 C      -4.110827    -0.212617     1.783165 C          1 UNL1 0.000
    14 C      -5.562922     4.695389     1.640664 C          1 UNL1 0.000
    15 C      -6.879580     4.457722     2.031205 C          1 UNL1 0.000
    16 C      -7.267927     3.176051     2.397245 C          1 UNL1 0.000
    17 C      -6.351470     2.123500     2.330584 C          1 UNL1 0.000
    18 C      -6.440409    -0.985257     1.266558 C          1 UNL1 0.000
    19 C      -7.410966    -1.989899     1.247947 C          1 UNL1 0.000
    20 C      -7.080760    -3.280375     1.640388 C          1 UNL1 0.000
    21 C      -5.769610    -3.576859     2.009281 C          1 UNL1 0.000
    22 C      -0.552258     0.429983     1.732152 C          1 UNL1 0.000
    23 C       0.080356     0.288949     2.976274 C          1 UNL1 0.000
    24 C       1.470685     0.314018     3.045204 C          1 UNL1 0.000
    25 C       2.221725     0.471681     1.881967 C          1 UNL1 0.000
    26 C       1.584849     0.599896     0.642765 C          1 UNL1 0.000
    27 C       0.182286     0.580457     0.537947 C          1 UNL1 0.000
    28 H      -2.974166     4.950998     1.100078 H          1 UNL1 0.000
    29 H      -1.279798     3.181957     1.189183 H          1 UNL1 0.000
    30 H      -1.403400    -2.272436     2.333286 H          1 UNL1 0.000
    31 H      -3.183801    -3.950741     2.509535 H          1 UNL1 0.000
    32 H      -5.265991     5.715380     1.405626 H          1 UNL1 0.000
    33 H      -7.589045     5.279176     2.083346 H          1 UNL1 0.000
    34 H      -8.278912     2.992448     2.751585 H          1 UNL1 0.000
    35 H      -6.669551     1.155615     2.703820 H          1 UNL1 0.000
    36 H      -6.715125    -0.010374     0.876734 H          1 UNL1 0.000
    37 H      -8.419150    -1.763296     0.911174 H          1 UNL1 0.000
    38 H      -7.832581    -4.064800     1.626523 H          1 UNL1 0.000
    39 H      -5.519976    -4.604001     2.267020 H          1 UNL1 0.000
    40 H      -0.502163     0.180513     3.888877 H          1 UNL1 0.000
    41 H       1.969470     0.211237     4.005818 H          1 UNL1 0.000
    42 H       3.307922     0.480275     1.935589 H          1 UNL1 0.000
    43 H       2.197495     0.685439    -0.253229 H          1 UNL1 0.000
    44 C      -0.451315     0.640774    -0.785123 C          1 UNL1 0.000
    45 N      -1.116424    -0.482496    -1.161547 N          1 UNL1 0.000
    46 C      -1.731566    -0.479729    -2.368012 C          1 UNL1 0.000
    47 C      -1.701949     0.612001    -3.215095 C          1 UNL1 0.000
    48 C      -1.012933     1.762573    -2.837416 C          1 UNL1 0.000
    49 C      -0.368165     1.770989    -1.601078 C          1 UNL1 0.000
    50 N      -2.380367     0.541063    -4.488897 N          1 UNL1 0.000
    51 O      -2.304511    -0.523884    -5.115077 O          1 UNL1 0.000
    52 O      -2.976681     1.556952    -4.871783 O          1 UNL1 0.000
    53 H      -2.256834    -1.398175    -2.616819 H          1 UNL1 0.000
    54 H      -0.971700     2.635531    -3.483428 H          1 UNL1 0.000
    55 H       0.174941     2.652083    -1.272897 H          1 UNL1 0.000
@<TRIPOS>BOND
     1      1      2   2
     2      2      3   1
     3      3      4   2
     4      4      5   1
     5      5      6   2
     6      6      1   1
     7      4      7   1
     8      7      8   1
     9      8      9   2
    10      9     10   1
    11     10     11   2
    12     11     12   1
    13     12     13   2
    14     13      8   1
    15     13      5   1
    16      1     14   1
    17     14     15   2
    18     15     16   1
    19     16     17   2
    20     17      6   1
    21     12     18   1
    22     18     19   2
    23     19     20   1
    24     20     21   2
    25     21     11   1
    26     22     23   2
    27     23     24   1
    28     24     25   2
    29     25     26   1
    30     26     27   2
    31     27     22   1
    32      7     22   1
    33      2     28   1
    34      3     29   1
    35      9     30   1
    36     10     31   1
    37     14     32   1
    38     15     33   1
    39     16     34   1
    40     17     35   1
    41     18     36   1
    42     19     37   1
    43     20     38   1
    44     21     39   1
    45     23     40   1
    46     24     41   1
    47     25     42   1
    48     26     43   1
    49     44     45   2
    50     45     46   1
    51     46     47   2
    52     47     48   1
    53     48     49   2
    54     49     44   1
    55     50     51   2
    56     50     52   1
    57     47     50   1
    58     46     53   1
    59     48     54   1
    60     49     55   1
    61     27     44   1
