# Produced with molli package
@<TRIPOS>MOLECULE
D_2_Q
52 58 0 0 0
SMALL
USER_CHARGES

@<TRIPOS>ATOM
     1 C      -4.567558     3.615104     1.661313 C          1 UNL1 0.000
     2 C      -3.241891     3.931808     1.376684 C          1 UNL1 0.000
     3 C      -2.255775     2.951093     1.372469 C          1 UNL1 0.000
     4 C      -2.635723     1.612289     1.560692 C          1 UNL1 0.000
     5 C      -3.967620     1.215552     1.738239 C          1 UNL1 0.000
     6 C      -4.944879     2.266339     1.905519 C          1 UNL1 0.000
     7 N      -1.848052     0.480540     1.634493 N          1 UNL1 0.000
     8 C      -2.632197    -0.646043     1.795001 C          1 UNL1 0.000
     9 C      -2.246043    -1.984450     1.976905 C          1 UNL1 0.000
    10 C      -3.235990    -2.960294     2.038888 C          1 UNL1 0.000
    11 C      -4.575833    -2.639682     1.832554 C          1 UNL1 0.000
    12 C      -4.961693    -1.290913     1.603596 C          1 UNL1 0.000
    13 C      -3.971419    -0.244393     1.699790 C          1 UNL1 0.000
    14 C      -5.525633     4.638609     1.743054 C          1 UNL1 0.000
    15 C      -6.838682     4.362526     2.118953 C          1 UNL1 0.000
    16 C      -7.199498     3.064325     2.453605 C          1 UNL1 0.000
    17 C      -6.259979     2.033510     2.365446 C          1 UNL1 0.000
    18 C      -6.302149    -1.052612     1.227690 C          1 UNL1 0.000
    19 C      -7.250594    -2.078506     1.204472 C          1 UNL1 0.000
    20 C      -6.875265    -3.377313     1.520231 C          1 UNL1 0.000
    21 C      -5.542371    -3.658646     1.814280 C          1 UNL1 0.000
    22 C      -0.432206     0.476222     1.642785 C          1 UNL1 0.000
    23 C       0.207117     0.490220     2.890947 C          1 UNL1 0.000
    24 C       1.597681     0.455673     2.947846 C          1 UNL1 0.000
    25 C       2.340382     0.404246     1.769566 C          1 UNL1 0.000
    26 C       1.694471     0.383498     0.528410 C          1 UNL1 0.000
    27 C       0.291525     0.415125     0.435956 C          1 UNL1 0.000
    28 H      -2.943466     4.963507     1.203036 H          1 UNL1 0.000
    29 H      -1.216973     3.219924     1.198410 H          1 UNL1 0.000
    30 H      -1.200023    -2.263161     2.069399 H          1 UNL1 0.000
    31 H      -2.934572    -3.994331     2.194551 H          1 UNL1 0.000
    32 H      -5.249093     5.669469     1.531941 H          1 UNL1 0.000
    33 H      -7.566540     5.166638     2.183965 H          1 UNL1 0.000
    34 H      -8.207796     2.850319     2.798078 H          1 UNL1 0.000
    35 H      -6.556741     1.050603     2.715285 H          1 UNL1 0.000
    36 H      -6.615141    -0.069391     0.892837 H          1 UNL1 0.000
    37 H      -8.277804    -1.860479     0.924352 H          1 UNL1 0.000
    38 H      -7.609776    -4.177910     1.503879 H          1 UNL1 0.000
    39 H      -5.259043    -4.690461     2.011344 H          1 UNL1 0.000
    40 H      -0.370440     0.531527     3.812172 H          1 UNL1 0.000
    41 H       2.103430     0.472911     3.910191 H          1 UNL1 0.000
    42 H       3.426911     0.385063     1.814240 H          1 UNL1 0.000
    43 H       2.299421     0.354695    -0.376896 H          1 UNL1 0.000
    44 C      -0.350769     0.375115    -0.879059 C          1 UNL1 0.000
    45 N      -0.903120     1.534475    -1.314111 N          1 UNL1 0.000
    46 C      -1.519773     1.480502    -2.516564 C          1 UNL1 0.000
    47 C      -1.560543     0.326858    -3.280285 C          1 UNL1 0.000
    48 N      -0.989321    -0.829201    -2.876063 N          1 UNL1 0.000
    49 C      -0.394575    -0.779142    -1.658179 C          1 UNL1 0.000
    50 H      -1.986652     2.399677    -2.851195 H          1 UNL1 0.000
    51 H      -2.057725     0.302287    -4.243075 H          1 UNL1 0.000
    52 H       0.048076    -1.709335    -1.318497 H          1 UNL1 0.000
@<TRIPOS>BOND
     1      1      2   2
     2      2      3   1
     3      3      4   2
     4      4      5   1
     5      5      6   2
     6      6      1   1
     7      4      7   1
     8      7      8   1
     9      8      9   2
    10      9     10   1
    11     10     11   2
    12     11     12   1
    13     12     13   2
    14     13      8   1
    15     13      5   1
    16      1     14   1
    17     14     15   2
    18     15     16   1
    19     16     17   2
    20     17      6   1
    21     12     18   1
    22     18     19   2
    23     19     20   1
    24     20     21   2
    25     21     11   1
    26     22     23   2
    27     23     24   1
    28     24     25   2
    29     25     26   1
    30     26     27   2
    31     27     22   1
    32      7     22   1
    33      2     28   1
    34      3     29   1
    35      9     30   1
    36     10     31   1
    37     14     32   1
    38     15     33   1
    39     16     34   1
    40     17     35   1
    41     18     36   1
    42     19     37   1
    43     20     38   1
    44     21     39   1
    45     23     40   1
    46     24     41   1
    47     25     42   1
    48     26     43   1
    49     44     45   2
    50     45     46   1
    51     46     47   2
    52     47     48   1
    53     48     49   2
    54     49     44   1
    55     46     50   1
    56     47     51   1
    57     49     52   1
    58     27     44   1
