# Produced with molli package
@<TRIPOS>MOLECULE
D_2_N
51 57 0 0 0
SMALL
USER_CHARGES

@<TRIPOS>ATOM
     1 C      -4.605785     3.564597     1.605288 C          1 UNL1 0.000
     2 C      -3.274957     3.884970     1.349032 C          1 UNL1 0.000
     3 C      -2.282212     2.911142     1.387104 C          1 UNL1 0.000
     4 C      -2.657144     1.573644     1.597895 C          1 UNL1 0.000
     5 C      -3.990076     1.172378     1.756040 C          1 UNL1 0.000
     6 C      -4.980824     2.217829     1.863062 C          1 UNL1 0.000
     7 N      -1.864032     0.450367     1.741035 N          1 UNL1 0.000
     8 C      -2.644474    -0.669576     1.955172 C          1 UNL1 0.000
     9 C      -2.258537    -1.993433     2.222455 C          1 UNL1 0.000
    10 C      -3.244725    -2.973572     2.286629 C          1 UNL1 0.000
    11 C      -4.574501    -2.676302     1.994761 C          1 UNL1 0.000
    12 C      -4.956647    -1.343909     1.682261 C          1 UNL1 0.000
    13 C      -3.980439    -0.286257     1.777836 C          1 UNL1 0.000
    14 C      -5.571088     4.583710     1.651671 C          1 UNL1 0.000
    15 C      -6.891381     4.305151     1.999696 C          1 UNL1 0.000
    16 C      -7.254586     3.008579     2.337914 C          1 UNL1 0.000
    17 C      -6.307530     1.982248     2.287359 C          1 UNL1 0.000
    18 C      -6.274916    -1.132537     1.221614 C          1 UNL1 0.000
    19 C      -7.212961    -2.167316     1.189248 C          1 UNL1 0.000
    20 C      -6.847687    -3.447165     1.585246 C          1 UNL1 0.000
    21 C      -5.532409    -3.703143     1.969518 C          1 UNL1 0.000
    22 C      -0.449445     0.458011     1.729224 C          1 UNL1 0.000
    23 C       0.216821     0.423056     2.961119 C          1 UNL1 0.000
    24 C       1.609066     0.482021     2.986950 C          1 UNL1 0.000
    25 C       2.327529     0.571490     1.793711 C          1 UNL1 0.000
    26 C       1.657946     0.595697     0.566264 C          1 UNL1 0.000
    27 C       0.259390     0.534350     0.518622 C          1 UNL1 0.000
    28 H      -2.980031     4.917496     1.173056 H          1 UNL1 0.000
    29 H      -1.240314     3.190847     1.258934 H          1 UNL1 0.000
    30 H      -1.215173    -2.259512     2.367572 H          1 UNL1 0.000
    31 H      -2.944434    -3.996268     2.506120 H          1 UNL1 0.000
    32 H      -5.295332     5.613993     1.436683 H          1 UNL1 0.000
    33 H      -7.624482     5.106200     2.039396 H          1 UNL1 0.000
    34 H      -8.270654     2.792672     2.657607 H          1 UNL1 0.000
    35 H      -6.610066     1.001844     2.639174 H          1 UNL1 0.000
    36 H      -6.573635    -0.166705     0.826876 H          1 UNL1 0.000
    37 H      -8.223065    -1.972039     0.838854 H          1 UNL1 0.000
    38 H      -7.574621    -4.254506     1.561710 H          1 UNL1 0.000
    39 H      -5.254484    -4.722347     2.229488 H          1 UNL1 0.000
    40 H      -0.338835     0.370888     3.894973 H          1 UNL1 0.000
    41 H       2.135925     0.465048     3.938077 H          1 UNL1 0.000
    42 H       3.413845     0.617609     1.817442 H          1 UNL1 0.000
    43 H       2.236566     0.649622    -0.353856 H          1 UNL1 0.000
    44 C      -0.394716     0.511429    -0.781277 C          1 UNL1 0.000
    45 C      -0.889884    -0.663770    -1.311614 C          1 UNL1 0.000
    46 S      -1.616578    -0.429245    -2.843196 S          1 UNL1 0.000
    47 C      -1.264972     1.244195    -2.814143 C          1 UNL1 0.000
    48 C      -0.602534     1.614879    -1.664348 C          1 UNL1 0.000
    49 H      -0.871250    -1.653831    -0.875729 H          1 UNL1 0.000
    50 H      -1.563096     1.874910    -3.640066 H          1 UNL1 0.000
    51 H      -0.298950     2.633915    -1.459331 H          1 UNL1 0.000
@<TRIPOS>BOND
     1      1      2   2
     2      2      3   1
     3      3      4   2
     4      4      5   1
     5      5      6   2
     6      6      1   1
     7      4      7   1
     8      7      8   1
     9      8      9   2
    10      9     10   1
    11     10     11   2
    12     11     12   1
    13     12     13   2
    14     13      8   1
    15     13      5   1
    16      1     14   1
    17     14     15   2
    18     15     16   1
    19     16     17   2
    20     17      6   1
    21     12     18   1
    22     18     19   2
    23     19     20   1
    24     20     21   2
    25     21     11   1
    26     22     23   2
    27     23     24   1
    28     24     25   2
    29     25     26   1
    30     26     27   2
    31     27     22   1
    32      7     22   1
    33      2     28   1
    34      3     29   1
    35      9     30   1
    36     10     31   1
    37     14     32   1
    38     15     33   1
    39     16     34   1
    40     17     35   1
    41     18     36   1
    42     19     37   1
    43     20     38   1
    44     21     39   1
    45     23     40   1
    46     24     41   1
    47     25     42   1
    48     26     43   1
    49     44     45   2
    50     45     46   1
    51     46     47   1
    52     47     48   2
    53     48     44   1
    54     45     49   1
    55     47     50   1
    56     48     51   1
    57     27     44   1
