# Produced with molli package
@<TRIPOS>MOLECULE
D_2_L
58 65 0 0 0
SMALL
USER_CHARGES

@<TRIPOS>ATOM
     1 C      -4.628268     3.713934     1.685691 C          1 UNL1 0.000
     2 C      -3.290780     4.038416     1.479046 C          1 UNL1 0.000
     3 C      -2.305232     3.057933     1.491917 C          1 UNL1 0.000
     4 C      -2.692987     1.712349     1.606506 C          1 UNL1 0.000
     5 C      -4.030417     1.311196     1.729421 C          1 UNL1 0.000
     6 C      -5.014585     2.359134     1.881928 C          1 UNL1 0.000
     7 N      -1.908599     0.575910     1.646866 N          1 UNL1 0.000
     8 C      -2.694025    -0.550701     1.792237 C          1 UNL1 0.000
     9 C      -2.307904    -1.890052     1.967631 C          1 UNL1 0.000
    10 C      -3.296771    -2.866995     2.012887 C          1 UNL1 0.000
    11 C      -4.633193    -2.547638     1.787309 C          1 UNL1 0.000
    12 C      -5.016931    -1.198537     1.551499 C          1 UNL1 0.000
    13 C      -4.031432    -0.149916     1.674721 C          1 UNL1 0.000
    14 C      -5.590248     4.735266     1.742440 C          1 UNL1 0.000
    15 C      -6.919290     4.452168     2.048915 C          1 UNL1 0.000
    16 C      -7.292762     3.148009     2.343718 C          1 UNL1 0.000
    17 C      -6.348182     2.119985     2.280390 C          1 UNL1 0.000
    18 C      -6.349239    -0.964980     1.146255 C          1 UNL1 0.000
    19 C      -7.296318    -1.991665     1.109294 C          1 UNL1 0.000
    20 C      -6.925937    -3.288821     1.438318 C          1 UNL1 0.000
    21 C      -5.598038    -3.567343     1.755172 C          1 UNL1 0.000
    22 C      -0.493639     0.568682     1.617247 C          1 UNL1 0.000
    23 C       0.181728     0.551568     2.845712 C          1 UNL1 0.000
    24 C       1.573614     0.519245     2.859758 C          1 UNL1 0.000
    25 C       2.280801     0.499705     1.658399 C          1 UNL1 0.000
    26 C       1.598543     0.512911     0.436871 C          1 UNL1 0.000
    27 C       0.195039     0.547848     0.388159 C          1 UNL1 0.000
    28 H      -2.986403     5.076277     1.358208 H          1 UNL1 0.000
    29 H      -1.258995     3.334958     1.396849 H          1 UNL1 0.000
    30 H      -1.261792    -2.166493     2.066067 H          1 UNL1 0.000
    31 H      -2.995142    -3.901253     2.167528 H          1 UNL1 0.000
    32 H      -5.305598     5.770549     1.565202 H          1 UNL1 0.000
    33 H      -7.650982     5.254045     2.093427 H          1 UNL1 0.000
    34 H      -8.315387     2.926705     2.637338 H          1 UNL1 0.000
    35 H      -6.659454     1.132101     2.601903 H          1 UNL1 0.000
    36 H      -6.655037     0.015827     0.797474 H          1 UNL1 0.000
    37 H      -8.317912    -1.776021     0.808267 H          1 UNL1 0.000
    38 H      -7.659309    -4.089991     1.412845 H          1 UNL1 0.000
    39 H      -5.316375    -4.598351     1.960098 H          1 UNL1 0.000
    40 H      -0.368368     0.563062     3.784120 H          1 UNL1 0.000
    41 H       2.108228     0.506251     3.806268 H          1 UNL1 0.000
    42 H       3.367759     0.470301     1.669056 H          1 UNL1 0.000
    43 H       2.171843     0.490861    -0.488739 H          1 UNL1 0.000
    44 C      -0.481984     0.536855    -0.916792 C          1 UNL1 0.000
    45 C      -0.899743     1.733444    -1.515733 C          1 UNL1 0.000
    46 C      -1.572404     1.752775    -2.742643 C          1 UNL1 0.000
    47 C      -1.796496     0.526100    -3.372603 C          1 UNL1 0.000
    48 C      -1.378905    -0.686960    -2.827659 C          1 UNL1 0.000
    49 C      -0.716756    -0.679993    -1.583601 C          1 UNL1 0.000
    50 N      -2.425672     0.240831    -4.563164 N          1 UNL1 0.000
    51 C      -2.401588    -1.107987    -4.799820 C          1 UNL1 0.000
    52 C      -1.761332    -1.708956    -3.739994 C          1 UNL1 0.000
    53 H      -0.712318     2.681314    -1.015700 H          1 UNL1 0.000
    54 H      -1.907226     2.688293    -3.177790 H          1 UNL1 0.000
    55 H      -0.398032    -1.619442    -1.140375 H          1 UNL1 0.000
    56 H      -2.843204     0.932972    -5.169401 H          1 UNL1 0.000
    57 H      -2.846010    -1.522154    -5.694523 H          1 UNL1 0.000
    58 H      -1.588225    -2.770895    -3.627360 H          1 UNL1 0.000
@<TRIPOS>BOND
     1      1      2   2
     2      2      3   1
     3      3      4   2
     4      4      5   1
     5      5      6   2
     6      6      1   1
     7      4      7   1
     8      7      8   1
     9      8      9   2
    10      9     10   1
    11     10     11   2
    12     11     12   1
    13     12     13   2
    14     13      8   1
    15     13      5   1
    16      1     14   1
    17     14     15   2
    18     15     16   1
    19     16     17   2
    20     17      6   1
    21     12     18   1
    22     18     19   2
    23     19     20   1
    24     20     21   2
    25     21     11   1
    26     22     23   2
    27     23     24   1
    28     24     25   2
    29     25     26   1
    30     26     27   2
    31     27     22   1
    32      7     22   1
    33      2     28   1
    34      3     29   1
    35      9     30   1
    36     10     31   1
    37     14     32   1
    38     15     33   1
    39     16     34   1
    40     17     35   1
    41     18     36   1
    42     19     37   1
    43     20     38   1
    44     21     39   1
    45     23     40   1
    46     24     41   1
    47     25     42   1
    48     26     43   1
    49     44     45   2
    50     45     46   1
    51     46     47   2
    52     47     48   1
    53     48     49   2
    54     49     44   1
    55     47     50   1
    56     50     51   1
    57     51     52   2
    58     52     48   1
    59     45     53   1
    60     46     54   1
    61     49     55   1
    62     50     56   1
    63     51     57   1
    64     52     58   1
    65     27     44   1
