# Produced with molli package
@<TRIPOS>MOLECULE
D_2_T
57 63 0 0 0
SMALL
USER_CHARGES

@<TRIPOS>ATOM
     1 C      -4.663987     3.652577     1.779607 C          1 UNL1 0.000
     2 C      -3.331295     3.981776     1.546491 C          1 UNL1 0.000
     3 C      -2.340689     3.005420     1.546110 C          1 UNL1 0.000
     4 C      -2.720134     1.659800     1.683831 C          1 UNL1 0.000
     5 C      -4.054477     1.254291     1.817438 C          1 UNL1 0.000
     6 C      -5.042232     2.296113     1.976080 C          1 UNL1 0.000
     7 N      -1.930475     0.527694     1.752398 N          1 UNL1 0.000
     8 C      -2.713017    -0.599785     1.910284 C          1 UNL1 0.000
     9 C      -2.328948    -1.935293     2.115330 C          1 UNL1 0.000
    10 C      -3.318333    -2.913709     2.149159 C          1 UNL1 0.000
    11 C      -4.649909    -2.599968     1.884210 C          1 UNL1 0.000
    12 C      -5.029902    -1.253827     1.632078 C          1 UNL1 0.000
    13 C      -4.049320    -0.204433     1.766883 C          1 UNL1 0.000
    14 C      -5.628447     4.669753     1.864099 C          1 UNL1 0.000
    15 C      -6.950107     4.378846     2.195971 C          1 UNL1 0.000
    16 C      -7.315202     3.070057     2.481445 C          1 UNL1 0.000
    17 C      -6.369427     2.045544     2.389512 C          1 UNL1 0.000
    18 C      -6.351767    -1.018894     1.194210 C          1 UNL1 0.000
    19 C      -7.294806    -2.047460     1.129137 C          1 UNL1 0.000
    20 C      -6.931192    -3.344001     1.468819 C          1 UNL1 0.000
    21 C      -5.612957    -3.620685     1.827627 C          1 UNL1 0.000
    22 C      -0.515638     0.533230     1.750450 C          1 UNL1 0.000
    23 C       0.136223     0.537766     2.991688 C          1 UNL1 0.000
    24 C       1.527851     0.560327     3.032737 C          1 UNL1 0.000
    25 C       2.258326     0.575607     1.845462 C          1 UNL1 0.000
    26 C       1.599513     0.565063     0.611375 C          1 UNL1 0.000
    27 C       0.196862     0.542538     0.535759 C          1 UNL1 0.000
    28 H      -3.033515     5.020596     1.418464 H          1 UNL1 0.000
    29 H      -1.297272     3.286870     1.435270 H          1 UNL1 0.000
    30 H      -1.285004    -2.208364     2.241906 H          1 UNL1 0.000
    31 H      -3.019811    -3.945471     2.324453 H          1 UNL1 0.000
    32 H      -5.350775     5.707637     1.691788 H          1 UNL1 0.000
    33 H      -7.682603     5.178290     2.265613 H          1 UNL1 0.000
    34 H      -8.331764     2.842597     2.791134 H          1 UNL1 0.000
    35 H      -6.673072     1.051807     2.700822 H          1 UNL1 0.000
    36 H      -6.649809    -0.036148     0.842967 H          1 UNL1 0.000
    37 H      -8.307670    -1.833629     0.798355 H          1 UNL1 0.000
    38 H      -7.662233    -4.146454     1.421063 H          1 UNL1 0.000
    39 H      -5.336896    -4.650733     2.043713 H          1 UNL1 0.000
    40 H      -0.431837     0.532285     3.919397 H          1 UNL1 0.000
    41 H       2.044159     0.568356     3.989392 H          1 UNL1 0.000
    42 H       3.345115     0.592860     1.876859 H          1 UNL1 0.000
    43 H       2.190673     0.569147    -0.303196 H          1 UNL1 0.000
    44 C      -0.450861     0.501244    -0.781730 C          1 UNL1 0.000
    45 C      -0.773669     1.681911    -1.464056 C          1 UNL1 0.000
    46 C      -1.391132     1.639481    -2.717108 C          1 UNL1 0.000
    47 C      -1.696765     0.413099    -3.315525 C          1 UNL1 0.000
    48 C      -1.354980    -0.769271    -2.651186 C          1 UNL1 0.000
    49 C      -0.744524    -0.724882    -1.394532 C          1 UNL1 0.000
    50 C      -2.326191     0.366708    -4.675883 C          1 UNL1 0.000
    51 H      -0.550986     2.648514    -1.018781 H          1 UNL1 0.000
    52 H      -1.636003     2.572539    -3.219220 H          1 UNL1 0.000
    53 H      -1.566875    -1.735135    -3.103913 H          1 UNL1 0.000
    54 H      -0.498920    -1.658264    -0.892514 H          1 UNL1 0.000
    55 H      -2.958464    -0.520827    -4.783626 H          1 UNL1 0.000
    56 H      -1.549543     0.344182    -5.446579 H          1 UNL1 0.000
    57 H      -2.963741     1.241455    -4.842042 H          1 UNL1 0.000
@<TRIPOS>BOND
     1      1      2   2
     2      2      3   1
     3      3      4   2
     4      4      5   1
     5      5      6   2
     6      6      1   1
     7      4      7   1
     8      7      8   1
     9      8      9   2
    10      9     10   1
    11     10     11   2
    12     11     12   1
    13     12     13   2
    14     13      8   1
    15     13      5   1
    16      1     14   1
    17     14     15   2
    18     15     16   1
    19     16     17   2
    20     17      6   1
    21     12     18   1
    22     18     19   2
    23     19     20   1
    24     20     21   2
    25     21     11   1
    26     22     23   2
    27     23     24   1
    28     24     25   2
    29     25     26   1
    30     26     27   2
    31     27     22   1
    32      7     22   1
    33      2     28   1
    34      3     29   1
    35      9     30   1
    36     10     31   1
    37     14     32   1
    38     15     33   1
    39     16     34   1
    40     17     35   1
    41     18     36   1
    42     19     37   1
    43     20     38   1
    44     21     39   1
    45     23     40   1
    46     24     41   1
    47     25     42   1
    48     26     43   1
    49     44     45   2
    50     45     46   1
    51     46     47   2
    52     47     48   1
    53     48     49   2
    54     49     44   1
    55     47     50   1
    56     45     51   1
    57     46     52   1
    58     48     53   1
    59     49     54   1
    60     50     55   1
    61     50     56   1
    62     50     57   1
    63     27     44   1
