# Produced with molli package
@<TRIPOS>MOLECULE
D_2_O
53 59 0 0 0
SMALL
USER_CHARGES

@<TRIPOS>ATOM
     1 C      -4.659297     3.659764     1.652540 C          1 UNL1 0.000
     2 C      -3.332207     3.982753     1.378925 C          1 UNL1 0.000
     3 C      -2.340161     3.006647     1.379585 C          1 UNL1 0.000
     4 C      -2.713805     1.665283     1.568353 C          1 UNL1 0.000
     5 C      -4.045277     1.264097     1.743395 C          1 UNL1 0.000
     6 C      -5.031143     2.309055     1.891515 C          1 UNL1 0.000
     7 N      -1.921287     0.535978     1.674313 N          1 UNL1 0.000
     8 C      -2.703506    -0.585462     1.874333 C          1 UNL1 0.000
     9 C      -2.315933    -1.917215     2.094496 C          1 UNL1 0.000
    10 C      -3.302312    -2.896982     2.153450 C          1 UNL1 0.000
    11 C      -4.637135    -2.588691     1.900270 C          1 UNL1 0.000
    12 C      -5.022571    -1.247409     1.632001 C          1 UNL1 0.000
    13 C      -4.041055    -0.194528     1.733303 C          1 UNL1 0.000
    14 C      -5.623329     4.678206     1.735757 C          1 UNL1 0.000
    15 C      -6.937297     4.393804     2.103331 C          1 UNL1 0.000
    16 C      -7.294635     3.091689     2.425915 C          1 UNL1 0.000
    17 C      -6.349162     2.066532     2.338525 C          1 UNL1 0.000
    18 C      -6.350178    -1.022454     1.205342 C          1 UNL1 0.000
    19 C      -7.290773    -2.054782     1.164800 C          1 UNL1 0.000
    20 C      -6.919502    -3.345542     1.517404 C          1 UNL1 0.000
    21 C      -5.596940    -3.613350     1.866554 C          1 UNL1 0.000
    22 C      -0.504763     0.544371     1.671357 C          1 UNL1 0.000
    23 C       0.150152     0.486657     2.910052 C          1 UNL1 0.000
    24 C       1.541434     0.525917     2.950408 C          1 UNL1 0.000
    25 C       2.269456     0.615450     1.764955 C          1 UNL1 0.000
    26 C       1.608192     0.667047     0.532852 C          1 UNL1 0.000
    27 C       0.204529     0.634133     0.457220 C          1 UNL1 0.000
    28 H      -3.038825     5.018439     1.219885 H          1 UNL1 0.000
    29 H      -1.300120     3.287699     1.241893 H          1 UNL1 0.000
    30 H      -1.268639    -2.189180     2.193505 H          1 UNL1 0.000
    31 H      -2.996907    -3.926018     2.330880 H          1 UNL1 0.000
    32 H      -5.351075     5.712185     1.534749 H          1 UNL1 0.000
    33 H      -7.669230     5.194010     2.171342 H          1 UNL1 0.000
    34 H      -8.304114     2.870047     2.762127 H          1 UNL1 0.000
    35 H      -6.644164     1.079994     2.679790 H          1 UNL1 0.000
    36 H      -6.655080    -0.046077     0.843216 H          1 UNL1 0.000
    37 H      -8.307720    -1.848641     0.841890 H          1 UNL1 0.000
    38 H      -7.647653    -4.151402     1.487025 H          1 UNL1 0.000
    39 H      -5.313992    -4.639430     2.091664 H          1 UNL1 0.000
    40 H      -0.415981     0.423817     3.836807 H          1 UNL1 0.000
    41 H       2.059228     0.484020     3.905367 H          1 UNL1 0.000
    42 H       3.356267     0.632874     1.796000 H          1 UNL1 0.000
    43 H       2.199509     0.706963    -0.380504 H          1 UNL1 0.000
    44 C      -0.457198     0.641293    -0.852352 C          1 UNL1 0.000
    45 N      -1.069228    -0.515725    -1.200823 N          1 UNL1 0.000
    46 C      -1.715187    -0.546023    -2.385772 C          1 UNL1 0.000
    47 C      -1.768418     0.525377    -3.260334 C          1 UNL1 0.000
    48 C      -1.122337     1.700870    -2.897768 C          1 UNL1 0.000
    49 C      -0.454173     1.763149    -1.677727 C          1 UNL1 0.000
    50 H      -2.206575    -1.486274    -2.618893 H          1 UNL1 0.000
    51 H      -2.304532     0.445991    -4.199138 H          1 UNL1 0.000
    52 H      -1.146285     2.565373    -3.554574 H          1 UNL1 0.000
    53 H       0.042978     2.677007    -1.370861 H          1 UNL1 0.000
@<TRIPOS>BOND
     1      1      2   2
     2      2      3   1
     3      3      4   2
     4      4      5   1
     5      5      6   2
     6      6      1   1
     7      4      7   1
     8      7      8   1
     9      8      9   2
    10      9     10   1
    11     10     11   2
    12     11     12   1
    13     12     13   2
    14     13      8   1
    15     13      5   1
    16      1     14   1
    17     14     15   2
    18     15     16   1
    19     16     17   2
    20     17      6   1
    21     12     18   1
    22     18     19   2
    23     19     20   1
    24     20     21   2
    25     21     11   1
    26     22     23   2
    27     23     24   1
    28     24     25   2
    29     25     26   1
    30     26     27   2
    31     27     22   1
    32      7     22   1
    33      2     28   1
    34      3     29   1
    35      9     30   1
    36     10     31   1
    37     14     32   1
    38     15     33   1
    39     16     34   1
    40     17     35   1
    41     18     36   1
    42     19     37   1
    43     20     38   1
    44     21     39   1
    45     23     40   1
    46     24     41   1
    47     25     42   1
    48     26     43   1
    49     44     45   2
    50     45     46   1
    51     46     47   2
    52     47     48   1
    53     48     49   2
    54     49     44   1
    55     46     50   1
    56     47     51   1
    57     48     52   1
    58     49     53   1
    59     27     44   1
