# Produced with molli package
@<TRIPOS>MOLECULE
D_2_M
55 61 0 0 0
SMALL
USER_CHARGES

@<TRIPOS>ATOM
     1 C      -4.640259     3.626378     1.784608 C          1 UNL1 0.000
     2 C      -3.302622     3.971245     1.622961 C          1 UNL1 0.000
     3 C      -2.307111     3.003369     1.652380 C          1 UNL1 0.000
     4 C      -2.681420     1.651939     1.735770 C          1 UNL1 0.000
     5 C      -4.015067     1.228222     1.829374 C          1 UNL1 0.000
     6 C      -5.015943     2.265836     1.967400 C          1 UNL1 0.000
     7 N      -1.879500     0.529059     1.754385 N          1 UNL1 0.000
     8 C      -2.644211    -0.614970     1.856409 C          1 UNL1 0.000
     9 C      -2.226769    -1.949525     1.989309 C          1 UNL1 0.000
    10 C      -3.191914    -2.948405     2.031169 C          1 UNL1 0.000
    11 C      -4.539092    -2.651574     1.848169 C          1 UNL1 0.000
    12 C      -4.957881    -1.307186     1.641733 C          1 UNL1 0.000
    13 C      -3.991219    -0.236393     1.762528 C          1 UNL1 0.000
    14 C      -5.613219     4.638415     1.805370 C          1 UNL1 0.000
    15 C      -6.949124     4.341797     2.061782 C          1 UNL1 0.000
    16 C      -7.316806     3.035449     2.351363 C          1 UNL1 0.000
    17 C      -6.358508     2.017428     2.328151 C          1 UNL1 0.000
    18 C      -6.307146    -1.105597     1.276567 C          1 UNL1 0.000
    19 C      -7.232576    -2.153659     1.264948 C          1 UNL1 0.000
    20 C      -6.823484    -3.444199     1.569842 C          1 UNL1 0.000
    21 C      -5.479504    -3.694558     1.835079 C          1 UNL1 0.000
    22 C      -0.464894     0.548856     1.722612 C          1 UNL1 0.000
    23 C       0.209601     0.599904     2.950385 C          1 UNL1 0.000
    24 C       1.601531     0.594849     2.964913 C          1 UNL1 0.000
    25 C       2.309055     0.536428     1.765053 C          1 UNL1 0.000
    26 C       1.627327     0.485192     0.544009 C          1 UNL1 0.000
    27 C       0.223434     0.492158     0.493979 C          1 UNL1 0.000
    28 H      -3.008274     5.013907     1.520833 H          1 UNL1 0.000
    29 H      -1.262322     3.294911     1.585333 H          1 UNL1 0.000
    30 H      -1.173630    -2.205319     2.069172 H          1 UNL1 0.000
    31 H      -2.865309    -3.978628     2.158843 H          1 UNL1 0.000
    32 H      -5.333818     5.676093     1.634320 H          1 UNL1 0.000
    33 H      -7.691075     5.135503     2.072621 H          1 UNL1 0.000
    34 H      -8.347065     2.804371     2.609056 H          1 UNL1 0.000
    35 H      -6.669777     1.031247     2.652322 H          1 UNL1 0.000
    36 H      -6.648380    -0.133473     0.939594 H          1 UNL1 0.000
    37 H      -8.269288    -1.958722     1.003131 H          1 UNL1 0.000
    38 H      -7.539551    -4.261475     1.565494 H          1 UNL1 0.000
    39 H      -5.167954    -4.720610     2.020208 H          1 UNL1 0.000
    40 H      -0.340762     0.640020     3.888018 H          1 UNL1 0.000
    41 H       2.136165     0.634088     3.910861 H          1 UNL1 0.000
    42 H       3.396553     0.531204     1.777103 H          1 UNL1 0.000
    43 H       2.203912     0.442997    -0.378787 H          1 UNL1 0.000
    44 C      -0.453626     0.440482    -0.809934 C          1 UNL1 0.000
    45 C      -0.982423     1.602819    -1.391982 C          1 UNL1 0.000
    46 C      -1.647985     1.554170    -2.619932 C          1 UNL1 0.000
    47 C      -1.778410     0.339579    -3.296307 C          1 UNL1 0.000
    48 C      -1.239560    -0.823231    -2.738517 C          1 UNL1 0.000
    49 C      -0.583568    -0.771807    -1.503786 C          1 UNL1 0.000
    50 C      -2.456580     0.289543    -4.559025 C          1 UNL1 0.000
    51 N      -2.997702     0.253238    -5.584121 N          1 UNL1 0.000
    52 H      -0.886629     2.560368    -0.884871 H          1 UNL1 0.000
    53 H      -2.063870     2.469412    -3.036958 H          1 UNL1 0.000
    54 H      -1.330871    -1.776981    -3.254672 H          1 UNL1 0.000
    55 H      -0.180662    -1.689287    -1.078555 H          1 UNL1 0.000
@<TRIPOS>BOND
     1      1      2   2
     2      2      3   1
     3      3      4   2
     4      4      5   1
     5      5      6   2
     6      6      1   1
     7      4      7   1
     8      7      8   1
     9      8      9   2
    10      9     10   1
    11     10     11   2
    12     11     12   1
    13     12     13   2
    14     13      8   1
    15     13      5   1
    16      1     14   1
    17     14     15   2
    18     15     16   1
    19     16     17   2
    20     17      6   1
    21     12     18   1
    22     18     19   2
    23     19     20   1
    24     20     21   2
    25     21     11   1
    26     22     23   2
    27     23     24   1
    28     24     25   2
    29     25     26   1
    30     26     27   2
    31     27     22   1
    32      7     22   1
    33      2     28   1
    34      3     29   1
    35      9     30   1
    36     10     31   1
    37     14     32   1
    38     15     33   1
    39     16     34   1
    40     17     35   1
    41     18     36   1
    42     19     37   1
    43     20     38   1
    44     21     39   1
    45     23     40   1
    46     24     41   1
    47     25     42   1
    48     26     43   1
    49     44     45   2
    50     45     46   1
    51     46     47   2
    52     47     48   1
    53     48     49   2
    54     49     44   1
    55     50     51   3
    56     47     50   1
    57     45     52   1
    58     46     53   1
    59     48     54   1
    60     49     55   1
    61     27     44   1
