# Produced with molli package
@<TRIPOS>MOLECULE
D_2_S
59 65 0 0 0
SMALL
USER_CHARGES

@<TRIPOS>ATOM
     1 C      -4.617630     3.578654     2.037062 C          1 UNL1 0.000
     2 C      -3.282121     3.887007     2.283937 C          1 UNL1 0.000
     3 C      -2.294329     2.910644     2.209028 C          1 UNL1 0.000
     4 C      -2.679513     1.581506     1.967469 C          1 UNL1 0.000
     5 C      -4.016407     1.187956     1.819744 C          1 UNL1 0.000
     6 C      -5.002201     2.241044     1.746360 C          1 UNL1 0.000
     7 N      -1.893581     0.464690     1.759448 N          1 UNL1 0.000
     8 C      -2.679403    -0.663632     1.622382 C          1 UNL1 0.000
     9 C      -2.294264    -1.997244     1.405774 C          1 UNL1 0.000
    10 C      -3.279725    -2.977398     1.356355 C          1 UNL1 0.000
    11 C      -4.612983    -2.668568     1.612487 C          1 UNL1 0.000
    12 C      -4.996591    -1.328355     1.892631 C          1 UNL1 0.000
    13 C      -4.014750    -0.272732     1.790872 C          1 UNL1 0.000
    14 C      -5.579770     4.601657     2.037835 C          1 UNL1 0.000
    15 C      -6.907302     4.337522     1.706950 C          1 UNL1 0.000
    16 C      -7.280000     3.053833     1.332171 C          1 UNL1 0.000
    17 C      -6.334962     2.024431     1.331988 C          1 UNL1 0.000
    18 C      -6.323539    -1.112162     2.325889 C          1 UNL1 0.000
    19 C      -7.265566    -2.144236     2.351101 C          1 UNL1 0.000
    20 C      -6.895558    -3.430353     1.982442 C          1 UNL1 0.000
    21 C      -5.572343    -3.694122     1.634920 C          1 UNL1 0.000
    22 C      -0.478065     0.469671     1.734248 C          1 UNL1 0.000
    23 C       0.192667     0.493778     2.965086 C          1 UNL1 0.000
    24 C       1.584371     0.466617     2.985216 C          1 UNL1 0.000
    25 C       2.296171     0.419681     1.787467 C          1 UNL1 0.000
    26 C       1.619026     0.404326     0.562976 C          1 UNL1 0.000
    27 C       0.215491     0.432037     0.507672 C          1 UNL1 0.000
    28 H      -2.980563     4.914090     2.480428 H          1 UNL1 0.000
    29 H      -1.248849     3.183223     2.325179 H          1 UNL1 0.000
    30 H      -1.249964    -2.267939     1.277994 H          1 UNL1 0.000
    31 H      -2.977492    -4.006224     1.171167 H          1 UNL1 0.000
    32 H      -5.296942     5.624142     2.279526 H          1 UNL1 0.000
    33 H      -7.638755     5.141074     1.707378 H          1 UNL1 0.000
    34 H      -8.301993     2.851400     1.022703 H          1 UNL1 0.000
    35 H      -6.644202     1.058236     0.947916 H          1 UNL1 0.000
    36 H      -6.630539    -0.143136     2.704234 H          1 UNL1 0.000
    37 H      -8.283312    -1.941019     2.673890 H          1 UNL1 0.000
    38 H      -7.625186    -4.235374     1.999562 H          1 UNL1 0.000
    39 H      -5.290358    -4.718104     1.398757 H          1 UNL1 0.000
    40 H      -0.360564     0.519094     3.901541 H          1 UNL1 0.000
    41 H       2.115318     0.479240     3.933932 H          1 UNL1 0.000
    42 H       3.383446     0.402072     1.803690 H          1 UNL1 0.000
    43 H       2.199049     0.386420    -0.358415 H          1 UNL1 0.000
    44 C      -0.457307     0.466193    -0.799232 C          1 UNL1 0.000
    45 C      -1.020692     1.656084    -1.281810 C          1 UNL1 0.000
    46 C      -1.679626     1.688991    -2.513852 C          1 UNL1 0.000
    47 C      -1.786017     0.531028    -3.292771 C          1 UNL1 0.000
    48 C      -1.210042    -0.656875    -2.830004 C          1 UNL1 0.000
    49 C      -0.551471    -0.685370    -1.594049 C          1 UNL1 0.000
    50 C      -2.507098     0.619847    -4.597601 C          1 UNL1 0.000
    51 C      -2.764517    -0.636997    -5.386823 C          1 UNL1 0.000
    52 O      -2.859576     1.716923    -5.028723 O          1 UNL1 0.000
    53 H      -0.957126     2.571180    -0.695806 H          1 UNL1 0.000
    54 H      -2.115251     2.625760    -2.857631 H          1 UNL1 0.000
    55 H      -1.256598    -1.575889    -3.405928 H          1 UNL1 0.000
    56 H      -0.121173    -1.622288    -1.245093 H          1 UNL1 0.000
    57 H      -3.580993    -0.451908    -6.092185 H          1 UNL1 0.000
    58 H      -3.082432    -1.456984    -4.738793 H          1 UNL1 0.000
    59 H      -1.866466    -0.910864    -5.946038 H          1 UNL1 0.000
@<TRIPOS>BOND
     1      1      2   2
     2      2      3   1
     3      3      4   2
     4      4      5   1
     5      5      6   2
     6      6      1   1
     7      4      7   1
     8      7      8   1
     9      8      9   2
    10      9     10   1
    11     10     11   2
    12     11     12   1
    13     12     13   2
    14     13      8   1
    15     13      5   1
    16      1     14   1
    17     14     15   2
    18     15     16   1
    19     16     17   2
    20     17      6   1
    21     12     18   1
    22     18     19   2
    23     19     20   1
    24     20     21   2
    25     21     11   1
    26     22     23   2
    27     23     24   1
    28     24     25   2
    29     25     26   1
    30     26     27   2
    31     27     22   1
    32      7     22   1
    33      2     28   1
    34      3     29   1
    35      9     30   1
    36     10     31   1
    37     14     32   1
    38     15     33   1
    39     16     34   1
    40     17     35   1
    41     18     36   1
    42     19     37   1
    43     20     38   1
    44     21     39   1
    45     23     40   1
    46     24     41   1
    47     25     42   1
    48     26     43   1
    49     44     45   2
    50     45     46   1
    51     46     47   2
    52     47     48   1
    53     48     49   2
    54     49     44   1
    55     47     50   1
    56     50     51   1
    57     50     52   2
    58     45     53   1
    59     46     54   1
    60     48     55   1
    61     49     56   1
    62     51     57   1
    63     51     58   1
    64     51     59   1
    65     27     44   1
