# Produced with molli package
@<TRIPOS>MOLECULE
D_2_P
58 64 0 0 0
SMALL
USER_CHARGES

@<TRIPOS>ATOM
     1 C      -4.672132     3.648124     2.060384 C          1 UNL1 0.000
     2 C      -3.341668     3.953730     2.337577 C          1 UNL1 0.000
     3 C      -2.348890     2.983277     2.246283 C          1 UNL1 0.000
     4 C      -2.726601     1.658715     1.969938 C          1 UNL1 0.000
     5 C      -4.060674     1.265737     1.797339 C          1 UNL1 0.000
     6 C      -5.046359     2.318250     1.727127 C          1 UNL1 0.000
     7 N      -1.936591     0.548394     1.739713 N          1 UNL1 0.000
     8 C      -2.719775    -0.582583     1.601582 C          1 UNL1 0.000
     9 C      -2.330256    -1.916671     1.398731 C          1 UNL1 0.000
    10 C      -3.311571    -2.900988     1.349618 C          1 UNL1 0.000
    11 C      -4.648458    -2.592773     1.587916 C          1 UNL1 0.000
    12 C      -5.039554    -1.251724     1.848461 C          1 UNL1 0.000
    13 C      -4.057697    -0.193904     1.756626 C          1 UNL1 0.000
    14 C      -5.639040     4.666779     2.072613 C          1 UNL1 0.000
    15 C      -6.958087     4.406772     1.705411 C          1 UNL1 0.000
    16 C      -7.316768     3.133385     1.284137 C          1 UNL1 0.000
    17 C      -6.368286     2.107234     1.277235 C          1 UNL1 0.000
    18 C      -6.374900    -1.035351     2.257262 C          1 UNL1 0.000
    19 C      -7.312745    -2.071774     2.282252 C          1 UNL1 0.000
    20 C      -6.931754    -3.361056     1.938928 C          1 UNL1 0.000
    21 C      -5.602855    -3.623545     1.612100 C          1 UNL1 0.000
    22 C      -0.520273     0.556537     1.721894 C          1 UNL1 0.000
    23 C       0.143929     0.635930     2.954621 C          1 UNL1 0.000
    24 C       1.535377     0.603952     2.986001 C          1 UNL1 0.000
    25 C       2.254900     0.500114     1.796879 C          1 UNL1 0.000
    26 C       1.585348     0.431513     0.570244 C          1 UNL1 0.000
    27 C       0.181819     0.459977     0.503349 C          1 UNL1 0.000
    28 H      -3.046944     4.975348     2.568565 H          1 UNL1 0.000
    29 H      -1.305988     3.256548     2.381345 H          1 UNL1 0.000
    30 H      -1.284444    -2.186483     1.281849 H          1 UNL1 0.000
    31 H      -3.004000    -3.929602     1.175865 H          1 UNL1 0.000
    32 H      -5.366193     5.682156     2.351853 H          1 UNL1 0.000
    33 H      -7.693349     5.206814     1.714722 H          1 UNL1 0.000
    34 H      -8.330481     2.936096     0.945467 H          1 UNL1 0.000
    35 H      -6.662956     1.149349     0.861022 H          1 UNL1 0.000
    36 H      -6.693100    -0.063368     2.616014 H          1 UNL1 0.000
    37 H      -8.336407    -1.868222     2.585784 H          1 UNL1 0.000
    38 H      -7.657244    -4.169824     1.957870 H          1 UNL1 0.000
    39 H      -5.312670    -4.648611     1.393612 H          1 UNL1 0.000
    40 H      -0.415110     0.700792     3.885711 H          1 UNL1 0.000
    41 H       2.059598     0.654142     3.937089 H          1 UNL1 0.000
    42 H       3.341800     0.476959     1.820875 H          1 UNL1 0.000
    43 H       2.170736     0.368033    -0.345785 H          1 UNL1 0.000
    44 C      -0.477481     0.432474    -0.811468 C          1 UNL1 0.000
    45 C      -1.063423     1.592456    -1.346564 C          1 UNL1 0.000
    46 C      -1.696764     1.566358    -2.591804 C          1 UNL1 0.000
    47 C      -1.735660     0.379498    -3.317927 C          1 UNL1 0.000
    48 C      -1.179475    -0.785454    -2.799346 C          1 UNL1 0.000
    49 C      -0.539402    -0.754681    -1.558571 C          1 UNL1 0.000
    50 O      -2.384128     0.309068    -4.520202 O          1 UNL1 0.000
    51 C      -1.605593     0.926661    -5.544342 C          1 UNL1 0.000
    52 H      -1.040037     2.525337    -0.786729 H          1 UNL1 0.000
    53 H      -2.169604     2.464354    -2.977628 H          1 UNL1 0.000
    54 H      -1.246511    -1.714743    -3.356848 H          1 UNL1 0.000
    55 H      -0.106814    -1.671410    -1.164823 H          1 UNL1 0.000
    56 H      -2.095502     0.727274    -6.502235 H          1 UNL1 0.000
    57 H      -0.595810     0.502531    -5.587191 H          1 UNL1 0.000
    58 H      -1.559511     2.012041    -5.407386 H          1 UNL1 0.000
@<TRIPOS>BOND
     1      1      2   2
     2      2      3   1
     3      3      4   2
     4      4      5   1
     5      5      6   2
     6      6      1   1
     7      4      7   1
     8      7      8   1
     9      8      9   2
    10      9     10   1
    11     10     11   2
    12     11     12   1
    13     12     13   2
    14     13      8   1
    15     13      5   1
    16      1     14   1
    17     14     15   2
    18     15     16   1
    19     16     17   2
    20     17      6   1
    21     12     18   1
    22     18     19   2
    23     19     20   1
    24     20     21   2
    25     21     11   1
    26     22     23   2
    27     23     24   1
    28     24     25   2
    29     25     26   1
    30     26     27   2
    31     27     22   1
    32      7     22   1
    33      2     28   1
    34      3     29   1
    35      9     30   1
    36     10     31   1
    37     14     32   1
    38     15     33   1
    39     16     34   1
    40     17     35   1
    41     18     36   1
    42     19     37   1
    43     20     38   1
    44     21     39   1
    45     23     40   1
    46     24     41   1
    47     25     42   1
    48     26     43   1
    49     44     45   2
    50     45     46   1
    51     46     47   2
    52     47     48   1
    53     48     49   2
    54     49     44   1
    55     50     51   1
    56     47     50   1
    57     45     52   1
    58     46     53   1
    59     48     54   1
    60     49     55   1
    61     51     56   1
    62     51     57   1
    63     51     58   1
    64     27     44   1
