# Produced with molli package
@<TRIPOS>MOLECULE
D_3_L
70 79 0 0 0
SMALL
USER_CHARGES

@<TRIPOS>ATOM
     1 C      -6.751409     3.603045     0.502335 C          1 UNL1 0.000
     2 C      -5.418619     3.928525     0.261756 C          1 UNL1 0.000
     3 C      -4.426841     2.953081     0.276219 C          1 UNL1 0.000
     4 C      -4.806948     1.611220     0.441245 C          1 UNL1 0.000
     5 C      -6.141114     1.206849     0.581331 C          1 UNL1 0.000
     6 C      -7.128131     2.251175     0.727711 C          1 UNL1 0.000
     7 N      -4.015164     0.481732     0.538603 N          1 UNL1 0.000
     8 C      -4.799778    -0.651281     0.651700 C          1 UNL1 0.000
     9 C      -4.412181    -1.991170     0.815419 C          1 UNL1 0.000
    10 C      -5.400539    -2.970145     0.850089 C          1 UNL1 0.000
    11 C      -6.738390    -2.650800     0.628831 C          1 UNL1 0.000
    12 C      -7.123062    -1.301368     0.403509 C          1 UNL1 0.000
    13 C      -6.138043    -0.252911     0.531992 C          1 UNL1 0.000
    14 C      -7.718707     4.619768     0.559385 C          1 UNL1 0.000
    15 C      -9.041903     4.333150     0.889623 C          1 UNL1 0.000
    16 C      -9.404364     3.031531     1.208031 C          1 UNL1 0.000
    17 C      -8.454709     2.008411     1.147782 C          1 UNL1 0.000
    18 C      -8.456466    -1.064430     0.002014 C          1 UNL1 0.000
    19 C      -9.403834    -2.090558    -0.039469 C          1 UNL1 0.000
    20 C      -9.032722    -3.389487     0.279964 C          1 UNL1 0.000
    21 C      -7.703693    -3.670618     0.591523 C          1 UNL1 0.000
    22 C      -2.576507     0.473830     3.036523 C          1 UNL1 0.000
    23 C      -1.882561     0.470158     4.244821 C          1 UNL1 0.000
    24 C      -0.500974     0.477897     4.233570 C          1 UNL1 0.000
    25 C       0.174951     0.491369     3.013921 C          1 UNL1 0.000
    26 C      -0.499563     0.496784     1.764151 C          1 UNL1 0.000
    27 C      -1.913033     0.482570     1.778517 C          1 UNL1 0.000
    28 C       0.196520     0.520409     0.511083 C          1 UNL1 0.000
    29 C      -0.515444     0.531093    -0.732720 C          1 UNL1 0.000
    30 C      -1.929181     0.512052    -0.728652 C          1 UNL1 0.000
    31 C      -2.592923     0.487902     0.529227 C          1 UNL1 0.000
    32 C       0.142642     0.558933    -1.990742 C          1 UNL1 0.000
    33 C      -0.549676     0.565867    -3.201391 C          1 UNL1 0.000
    34 C      -1.931236     0.540385    -3.194795 C          1 UNL1 0.000
    35 C      -2.609123     0.511162    -1.977760 C          1 UNL1 0.000
    36 H      -5.121451     4.965046     0.114286 H          1 UNL1 0.000
    37 H      -3.383469     3.233421     0.156374 H          1 UNL1 0.000
    38 H      -3.366066    -2.267357     0.920275 H          1 UNL1 0.000
    39 H      -5.097623    -4.005025     0.997862 H          1 UNL1 0.000
    40 H      -7.443104     5.653737     0.362317 H          1 UNL1 0.000
    41 H      -9.777720     5.131540     0.932280 H          1 UNL1 0.000
    42 H     -10.422089     2.808766     1.517618 H          1 UNL1 0.000
    43 H      -8.755527     1.022999     1.487069 H          1 UNL1 0.000
    44 H      -8.765014    -0.081284    -0.337107 H          1 UNL1 0.000
    45 H     -10.426703    -1.872284    -0.335027 H          1 UNL1 0.000
    46 H      -9.766822    -4.190160     0.252425 H          1 UNL1 0.000
    47 H      -7.422218    -4.702824     0.789624 H          1 UNL1 0.000
    48 H      -3.664054     0.471935     3.094170 H          1 UNL1 0.000
    49 H      -2.425510     0.462538     5.185932 H          1 UNL1 0.000
    50 H       0.057317     0.475999     5.165663 H          1 UNL1 0.000
    51 H       1.263467     0.499899     3.054186 H          1 UNL1 0.000
    52 H       1.230477     0.574698    -2.044652 H          1 UNL1 0.000
    53 H      -0.004161     0.587704    -4.140799 H          1 UNL1 0.000
    54 H      -2.486518     0.541313    -4.128759 H          1 UNL1 0.000
    55 H      -3.697081     0.485972    -2.021156 H          1 UNL1 0.000
    56 C       1.680430     0.533480     0.503948 C          1 UNL1 0.000
    57 C       2.381994     1.748711     0.521698 C          1 UNL1 0.000
    58 C       3.781069     1.791278     0.528336 C          1 UNL1 0.000
    59 C       4.464113     0.571006     0.517269 C          1 UNL1 0.000
    60 C       3.808383    -0.659278     0.496635 C          1 UNL1 0.000
    61 C       2.399944    -0.677520     0.488489 C          1 UNL1 0.000
    62 N       5.815956     0.308581     0.524754 N          1 UNL1 0.000
    63 C       6.035920    -1.043355     0.509544 C          1 UNL1 0.000
    64 C       4.810204    -1.668683     0.490786 C          1 UNL1 0.000
    65 H       1.829347     2.687171     0.533973 H          1 UNL1 0.000
    66 H       4.307992     2.739603     0.544503 H          1 UNL1 0.000
    67 H       1.871933    -1.627531     0.474807 H          1 UNL1 0.000
    68 H       6.536936     1.016517     0.541022 H          1 UNL1 0.000
    69 H       7.041358    -1.442213     0.513761 H          1 UNL1 0.000
    70 H       4.647629    -2.738406     0.476226 H          1 UNL1 0.000
@<TRIPOS>BOND
     1      1      2   2
     2      2      3   1
     3      3      4   2
     4      4      5   1
     5      5      6   2
     6      6      1   1
     7      4      7   1
     8      7      8   1
     9      8      9   2
    10      9     10   1
    11     10     11   2
    12     11     12   1
    13     12     13   2
    14     13      8   1
    15     13      5   1
    16      1     14   1
    17     14     15   2
    18     15     16   1
    19     16     17   2
    20     17      6   1
    21     12     18   1
    22     18     19   2
    23     19     20   1
    24     20     21   2
    25     21     11   1
    26     22     23   2
    27     23     24   1
    28     24     25   2
    29     25     26   1
    30     26     27   2
    31     27     22   1
    32     26     28   1
    33     28     29   2
    34     29     30   1
    35     30     31   2
    36     31     27   1
    37     29     32   1
    38     32     33   2
    39     33     34   1
    40     34     35   2
    41     35     30   1
    42      7     31   1
    43      2     36   1
    44      3     37   1
    45      9     38   1
    46     10     39   1
    47     14     40   1
    48     15     41   1
    49     16     42   1
    50     17     43   1
    51     18     44   1
    52     19     45   1
    53     20     46   1
    54     21     47   1
    55     22     48   1
    56     23     49   1
    57     24     50   1
    58     25     51   1
    59     32     52   1
    60     33     53   1
    61     34     54   1
    62     35     55   1
    63     56     57   2
    64     57     58   1
    65     58     59   2
    66     59     60   1
    67     60     61   2
    68     61     56   1
    69     59     62   1
    70     62     63   1
    71     63     64   2
    72     64     60   1
    73     57     65   1
    74     58     66   1
    75     61     67   1
    76     62     68   1
    77     63     69   1
    78     64     70   1
    79     28     56   1
