# Produced with molli package
@<TRIPOS>MOLECULE
D_3_N
63 71 0 0 0
SMALL
USER_CHARGES

@<TRIPOS>ATOM
     1 C      -6.706546     3.673305     0.554461 C          1 UNL1 0.000
     2 C      -5.366511     3.986117     0.766240 C          1 UNL1 0.000
     3 C      -4.387912     2.998602     0.750221 C          1 UNL1 0.000
     4 C      -4.786437     1.659815     0.606198 C          1 UNL1 0.000
     5 C      -6.126787     1.266873     0.488515 C          1 UNL1 0.000
     6 C      -7.105065     2.322891     0.352586 C          1 UNL1 0.000
     7 N      -4.006787     0.522795     0.512595 N          1 UNL1 0.000
     8 C      -4.800482    -0.603575     0.410241 C          1 UNL1 0.000
     9 C      -4.420210    -1.945195     0.244808 C          1 UNL1 0.000
    10 C      -5.412825    -2.918320     0.210846 C          1 UNL1 0.000
    11 C      -6.747535    -2.591144     0.434966 C          1 UNL1 0.000
    12 C      -7.125436    -1.239983     0.667290 C          1 UNL1 0.000
    13 C      -6.135162    -0.195197     0.537832 C          1 UNL1 0.000
    14 C      -7.659187     4.703907     0.503227 C          1 UNL1 0.000
    15 C      -8.992997     4.433156     0.206107 C          1 UNL1 0.000
    16 C      -9.380763     3.132897    -0.086091 C          1 UNL1 0.000
    17 C      -8.444304     2.096475    -0.035289 C          1 UNL1 0.000
    18 C      -8.457330    -1.001755     1.072359 C          1 UNL1 0.000
    19 C      -9.408792    -2.024964     1.106916 C          1 UNL1 0.000
    20 C      -9.043505    -3.323344     0.778667 C          1 UNL1 0.000
    21 C      -7.715897    -3.607682     0.466381 C          1 UNL1 0.000
    22 C      -2.569343     0.471023     3.010631 C          1 UNL1 0.000
    23 C      -1.875086     0.450334     4.218981 C          1 UNL1 0.000
    24 C      -0.493269     0.449620     4.208710 C          1 UNL1 0.000
    25 C       0.183788     0.469039     2.989726 C          1 UNL1 0.000
    26 C      -0.492901     0.491711     1.739815 C          1 UNL1 0.000
    27 C      -1.905159     0.494748     1.753226 C          1 UNL1 0.000
    28 C       0.188046     0.509875     0.481600 C          1 UNL1 0.000
    29 C      -0.511753     0.523451    -0.766353 C          1 UNL1 0.000
    30 C      -1.923768     0.529442    -0.758535 C          1 UNL1 0.000
    31 C      -2.585361     0.515519     0.502395 C          1 UNL1 0.000
    32 C       0.145856     0.533749    -2.026602 C          1 UNL1 0.000
    33 C      -0.549366     0.552930    -3.235307 C          1 UNL1 0.000
    34 C      -1.930974     0.564310    -3.224725 C          1 UNL1 0.000
    35 C      -2.606597     0.554327    -2.005975 C          1 UNL1 0.000
    36 H      -5.054011     5.020862     0.893635 H          1 UNL1 0.000
    37 H      -3.339597     3.268074     0.850250 H          1 UNL1 0.000
    38 H      -3.376096    -2.226704     0.134780 H          1 UNL1 0.000
    39 H      -5.115746    -3.954316     0.059314 H          1 UNL1 0.000
    40 H      -7.364096     5.736375     0.679391 H          1 UNL1 0.000
    41 H      -9.717585     5.242029     0.168472 H          1 UNL1 0.000
    42 H     -10.408562     2.921420    -0.369282 H          1 UNL1 0.000
    43 H      -8.767871     1.113470    -0.358714 H          1 UNL1 0.000
    44 H      -8.761820    -0.020611     1.420278 H          1 UNL1 0.000
    45 H     -10.430937    -1.805102     1.403808 H          1 UNL1 0.000
    46 H      -9.780689    -4.121370     0.800016 H          1 UNL1 0.000
    47 H      -7.438283    -4.639694     0.261593 H          1 UNL1 0.000
    48 H      -3.656928     0.466626     3.067730 H          1 UNL1 0.000
    49 H      -2.418555     0.433497     5.159939 H          1 UNL1 0.000
    50 H       0.063709     0.432443     5.141645 H          1 UNL1 0.000
    51 H       1.271902     0.465073     3.029533 H          1 UNL1 0.000
    52 H       1.233191     0.528100    -2.083082 H          1 UNL1 0.000
    53 H      -0.006525     0.561259    -4.176595 H          1 UNL1 0.000
    54 H      -2.488875     0.581873    -4.157135 H          1 UNL1 0.000
    55 H      -3.694824     0.567309    -2.047032 H          1 UNL1 0.000
    56 C       1.655463     0.505887     0.469748 C          1 UNL1 0.000
    57 C       2.376103     1.684583     0.475919 C          1 UNL1 0.000
    58 S       4.065344     1.407437     0.454716 S          1 UNL1 0.000
    59 C       3.844711    -0.289239     0.437090 C          1 UNL1 0.000
    60 C       2.512279    -0.638895     0.447664 C          1 UNL1 0.000
    61 H       1.995916     2.697525     0.490832 H          1 UNL1 0.000
    62 H       4.702212    -0.947874     0.419511 H          1 UNL1 0.000
    63 H       2.165564    -1.665384     0.438939 H          1 UNL1 0.000
@<TRIPOS>BOND
     1      1      2   2
     2      2      3   1
     3      3      4   2
     4      4      5   1
     5      5      6   2
     6      6      1   1
     7      4      7   1
     8      7      8   1
     9      8      9   2
    10      9     10   1
    11     10     11   2
    12     11     12   1
    13     12     13   2
    14     13      8   1
    15     13      5   1
    16      1     14   1
    17     14     15   2
    18     15     16   1
    19     16     17   2
    20     17      6   1
    21     12     18   1
    22     18     19   2
    23     19     20   1
    24     20     21   2
    25     21     11   1
    26     22     23   2
    27     23     24   1
    28     24     25   2
    29     25     26   1
    30     26     27   2
    31     27     22   1
    32     26     28   1
    33     28     29   2
    34     29     30   1
    35     30     31   2
    36     31     27   1
    37     29     32   1
    38     32     33   2
    39     33     34   1
    40     34     35   2
    41     35     30   1
    42      7     31   1
    43      2     36   1
    44      3     37   1
    45      9     38   1
    46     10     39   1
    47     14     40   1
    48     15     41   1
    49     16     42   1
    50     17     43   1
    51     18     44   1
    52     19     45   1
    53     20     46   1
    54     21     47   1
    55     22     48   1
    56     23     49   1
    57     24     50   1
    58     25     51   1
    59     32     52   1
    60     33     53   1
    61     34     54   1
    62     35     55   1
    63     56     57   2
    64     57     58   1
    65     58     59   1
    66     59     60   2
    67     60     56   1
    68     57     61   1
    69     59     62   1
    70     60     63   1
    71     28     56   1
