# Produced with molli package
@<TRIPOS>MOLECULE
D_3_Q
64 72 0 0 0
SMALL
USER_CHARGES

@<TRIPOS>ATOM
     1 C      -6.664929     3.621521     0.522984 C          1 UNL1 0.000
     2 C      -5.324275     3.930084     0.739119 C          1 UNL1 0.000
     3 C      -4.347016     2.940698     0.716997 C          1 UNL1 0.000
     4 C      -4.748051     1.603088     0.566707 C          1 UNL1 0.000
     5 C      -6.089159     1.215927     0.445828 C          1 UNL1 0.000
     6 C      -7.064370     2.273636     0.311374 C          1 UNL1 0.000
     7 N      -3.972106     0.462715     0.469777 N          1 UNL1 0.000
     8 C      -4.771906    -0.659837     0.361260 C          1 UNL1 0.000
     9 C      -4.403035    -2.004324     0.191942 C          1 UNL1 0.000
    10 C      -5.404258    -2.970113     0.161891 C          1 UNL1 0.000
    11 C      -6.735604    -2.634084     0.396513 C          1 UNL1 0.000
    12 C      -7.100342    -1.280832     0.632058 C          1 UNL1 0.000
    13 C      -6.103812    -0.244302     0.495131 C          1 UNL1 0.000
    14 C      -7.617873     4.652157     0.477041 C          1 UNL1 0.000
    15 C      -8.950867     4.383268     0.173135 C          1 UNL1 0.000
    16 C      -9.337783     3.085394    -0.131065 C          1 UNL1 0.000
    17 C      -8.401813     2.048885    -0.083540 C          1 UNL1 0.000
    18 C      -8.425838    -1.029179     1.050029 C          1 UNL1 0.000
    19 C      -9.386208    -2.043022     1.095036 C          1 UNL1 0.000
    20 C      -9.035867    -3.344542     0.762960 C          1 UNL1 0.000
    21 C      -7.713809    -3.641327     0.436923 C          1 UNL1 0.000
    22 C      -2.568320     0.514696     2.986351 C          1 UNL1 0.000
    23 C      -1.891770     0.568110     4.203311 C          1 UNL1 0.000
    24 C      -0.510725     0.603786     4.210717 C          1 UNL1 0.000
    25 C       0.182943     0.578778     3.001118 C          1 UNL1 0.000
    26 C      -0.474218     0.519492     1.742998 C          1 UNL1 0.000
    27 C      -1.887179     0.497361     1.737853 C          1 UNL1 0.000
    28 C       0.238491     0.481053     0.500444 C          1 UNL1 0.000
    29 C      -0.454965     0.445332    -0.753156 C          1 UNL1 0.000
    30 C      -1.868261     0.425779    -0.768411 C          1 UNL1 0.000
    31 C      -2.549951     0.451052     0.479808 C          1 UNL1 0.000
    32 C       0.221146     0.437868    -2.002630 C          1 UNL1 0.000
    33 C      -0.454709     0.401062    -3.222081 C          1 UNL1 0.000
    34 C      -1.836037     0.377898    -3.233831 C          1 UNL1 0.000
    35 C      -2.530951     0.395031    -2.026325 C          1 UNL1 0.000
    36 H      -5.009789     4.963246     0.874155 H          1 UNL1 0.000
    37 H      -3.298116     3.208007     0.819220 H          1 UNL1 0.000
    38 H      -3.361907    -2.294103     0.077015 H          1 UNL1 0.000
    39 H      -5.116673    -4.008359     0.007243 H          1 UNL1 0.000
    40 H      -7.323451     5.683085     0.662741 H          1 UNL1 0.000
    41 H      -9.675581     5.192170     0.139620 H          1 UNL1 0.000
    42 H     -10.364313     2.875860    -0.420115 H          1 UNL1 0.000
    43 H      -8.723497     1.067036    -0.413224 H          1 UNL1 0.000
    44 H      -8.717406    -0.044354     1.399269 H          1 UNL1 0.000
    45 H     -10.402982    -1.813236     1.402699 H          1 UNL1 0.000
    46 H      -9.780449    -4.135434     0.792075 H          1 UNL1 0.000
    47 H      -7.448196    -4.675887     0.229428 H          1 UNL1 0.000
    48 H      -3.656204     0.487308     3.029703 H          1 UNL1 0.000
    49 H      -2.448217     0.585990     5.136534 H          1 UNL1 0.000
    50 H       0.033037     0.654074     5.150199 H          1 UNL1 0.000
    51 H       1.269896     0.621087     3.057723 H          1 UNL1 0.000
    52 H       1.308694     0.478918    -2.046427 H          1 UNL1 0.000
    53 H       0.102788     0.400459    -4.154900 H          1 UNL1 0.000
    54 H      -2.378661     0.355778    -4.175106 H          1 UNL1 0.000
    55 H      -3.618429     0.388782    -2.085130 H          1 UNL1 0.000
    56 C       1.712335     0.456175     0.514265 C          1 UNL1 0.000
    57 N       2.340684     1.658743     0.578351 N          1 UNL1 0.000
    58 C       3.692794     1.617255     0.595843 C          1 UNL1 0.000
    59 C       4.401742     0.429007     0.550270 C          1 UNL1 0.000
    60 N       3.792260    -0.775528     0.485931 N          1 UNL1 0.000
    61 C       2.436714    -0.734498     0.470668 C          1 UNL1 0.000
    62 H       4.195971     2.576021     0.648996 H          1 UNL1 0.000
    63 H       5.485640     0.414694     0.565035 H          1 UNL1 0.000
    64 H       1.939780    -1.697791     0.420780 H          1 UNL1 0.000
@<TRIPOS>BOND
     1      1      2   2
     2      2      3   1
     3      3      4   2
     4      4      5   1
     5      5      6   2
     6      6      1   1
     7      4      7   1
     8      7      8   1
     9      8      9   2
    10      9     10   1
    11     10     11   2
    12     11     12   1
    13     12     13   2
    14     13      8   1
    15     13      5   1
    16      1     14   1
    17     14     15   2
    18     15     16   1
    19     16     17   2
    20     17      6   1
    21     12     18   1
    22     18     19   2
    23     19     20   1
    24     20     21   2
    25     21     11   1
    26     22     23   2
    27     23     24   1
    28     24     25   2
    29     25     26   1
    30     26     27   2
    31     27     22   1
    32     26     28   1
    33     28     29   2
    34     29     30   1
    35     30     31   2
    36     31     27   1
    37     29     32   1
    38     32     33   2
    39     33     34   1
    40     34     35   2
    41     35     30   1
    42      7     31   1
    43      2     36   1
    44      3     37   1
    45      9     38   1
    46     10     39   1
    47     14     40   1
    48     15     41   1
    49     16     42   1
    50     17     43   1
    51     18     44   1
    52     19     45   1
    53     20     46   1
    54     21     47   1
    55     22     48   1
    56     23     49   1
    57     24     50   1
    58     25     51   1
    59     32     52   1
    60     33     53   1
    61     34     54   1
    62     35     55   1
    63     56     57   2
    64     57     58   1
    65     58     59   2
    66     59     60   1
    67     60     61   2
    68     61     56   1
    69     58     62   1
    70     59     63   1
    71     61     64   1
    72     28     56   1
