# Produced with molli package
@<TRIPOS>MOLECULE
D_3_M
67 75 0 0 0
SMALL
USER_CHARGES

@<TRIPOS>ATOM
     1 C      -6.722361     3.630348     0.444879 C          1 UNL1 0.000
     2 C      -5.380836     3.967001     0.291397 C          1 UNL1 0.000
     3 C      -4.387908     2.995600     0.334818 C          1 UNL1 0.000
     4 C      -4.769125     1.647970     0.436947 C          1 UNL1 0.000
     5 C      -6.105962     1.232026     0.524446 C          1 UNL1 0.000
     6 C      -7.103921     2.274908     0.645221 C          1 UNL1 0.000
     7 N      -3.970597     0.522047     0.496290 N          1 UNL1 0.000
     8 C      -4.745888    -0.621108     0.538974 C          1 UNL1 0.000
     9 C      -4.336460    -1.961785     0.622717 C          1 UNL1 0.000
    10 C      -5.307537    -2.955961     0.636242 C          1 UNL1 0.000
    11 C      -6.655428    -2.646306     0.482508 C          1 UNL1 0.000
    12 C      -7.067216    -1.295125     0.313382 C          1 UNL1 0.000
    13 C      -6.091106    -0.232554     0.449981 C          1 UNL1 0.000
    14 C      -7.695357     4.643391     0.430724 C          1 UNL1 0.000
    15 C      -9.037210     4.352323     0.663509 C          1 UNL1 0.000
    16 C      -9.410794     3.053352     0.976149 C          1 UNL1 0.000
    17 C      -8.451312     2.036667     0.995818 C          1 UNL1 0.000
    18 C      -8.420845    -1.080486    -0.029523 C          1 UNL1 0.000
    19 C      -9.356174    -2.119793    -0.038925 C          1 UNL1 0.000
    20 C      -8.951590    -3.418120     0.234115 C          1 UNL1 0.000
    21 C      -7.603713    -3.682754     0.463128 C          1 UNL1 0.000
    22 C      -2.547632     0.596656     3.001488 C          1 UNL1 0.000
    23 C      -1.862026     0.629370     4.214327 C          1 UNL1 0.000
    24 C      -0.480508     0.633553     4.213391 C          1 UNL1 0.000
    25 C       0.204304     0.605587     2.999169 C          1 UNL1 0.000
    26 C      -0.460892     0.576851     1.744422 C          1 UNL1 0.000
    27 C      -1.874941     0.569567     1.749061 C          1 UNL1 0.000
    28 C       0.245375     0.554874     0.496373 C          1 UNL1 0.000
    29 C      -0.458899     0.531555    -0.751668 C          1 UNL1 0.000
    30 C      -1.873412     0.519816    -0.756272 C          1 UNL1 0.000
    31 C      -2.547088     0.536918     0.496315 C          1 UNL1 0.000
    32 C       0.206970     0.520694    -2.005849 C          1 UNL1 0.000
    33 C      -0.478520     0.495360    -3.220263 C          1 UNL1 0.000
    34 C      -1.860218     0.479964    -3.221427 C          1 UNL1 0.000
    35 C      -2.545906     0.491439    -2.008587 C          1 UNL1 0.000
    36 H      -5.081430     5.007390     0.180015 H          1 UNL1 0.000
    37 H      -3.341530     3.282591     0.269493 H          1 UNL1 0.000
    38 H      -3.284433    -2.227348     0.688288 H          1 UNL1 0.000
    39 H      -4.985241    -3.991781     0.724425 H          1 UNL1 0.000
    40 H      -7.411958     5.677105     0.243062 H          1 UNL1 0.000
    41 H      -9.779729     5.145185     0.637686 H          1 UNL1 0.000
    42 H     -10.446292     2.826994     1.216659 H          1 UNL1 0.000
    43 H      -8.766731     1.059156     1.341871 H          1 UNL1 0.000
    44 H      -8.761600    -0.102974    -0.348983 H          1 UNL1 0.000
    45 H     -10.396767    -1.911047    -0.273437 H          1 UNL1 0.000
    46 H      -9.674403    -4.229403     0.232349 H          1 UNL1 0.000
    47 H      -7.295750    -4.714642     0.619746 H          1 UNL1 0.000
    48 H      -3.635621     0.594322     3.051187 H          1 UNL1 0.000
    49 H      -2.411573     0.651206     5.151537 H          1 UNL1 0.000
    50 H       0.070358     0.658896     5.149754 H          1 UNL1 0.000
    51 H       1.291791     0.608222     3.050114 H          1 UNL1 0.000
    52 H       1.294441     0.533886    -2.055526 H          1 UNL1 0.000
    53 H       0.071500     0.487783    -4.157440 H          1 UNL1 0.000
    54 H      -2.410186     0.459935    -4.158500 H          1 UNL1 0.000
    55 H      -3.633870     0.478753    -2.058471 H          1 UNL1 0.000
    56 C       1.729354     0.551154     0.502655 C          1 UNL1 0.000
    57 C       2.450504     1.754174     0.577422 C          1 UNL1 0.000
    58 C       3.848360     1.747598     0.618360 C          1 UNL1 0.000
    59 C       4.545656     0.536436     0.579389 C          1 UNL1 0.000
    60 C       3.839477    -0.666945     0.493164 C          1 UNL1 0.000
    61 C       2.441690    -0.658705     0.456389 C          1 UNL1 0.000
    62 C       5.979175     0.527919     0.635299 C          1 UNL1 0.000
    63 N       7.137506     0.520564     0.684377 N          1 UNL1 0.000
    64 H       1.919670     2.704226     0.615800 H          1 UNL1 0.000
    65 H       4.384488     2.692570     0.686769 H          1 UNL1 0.000
    66 H       4.368367    -1.617876     0.460221 H          1 UNL1 0.000
    67 H       1.903769    -1.603740     0.397231 H          1 UNL1 0.000
@<TRIPOS>BOND
     1      1      2   2
     2      2      3   1
     3      3      4   2
     4      4      5   1
     5      5      6   2
     6      6      1   1
     7      4      7   1
     8      7      8   1
     9      8      9   2
    10      9     10   1
    11     10     11   2
    12     11     12   1
    13     12     13   2
    14     13      8   1
    15     13      5   1
    16      1     14   1
    17     14     15   2
    18     15     16   1
    19     16     17   2
    20     17      6   1
    21     12     18   1
    22     18     19   2
    23     19     20   1
    24     20     21   2
    25     21     11   1
    26     22     23   2
    27     23     24   1
    28     24     25   2
    29     25     26   1
    30     26     27   2
    31     27     22   1
    32     26     28   1
    33     28     29   2
    34     29     30   1
    35     30     31   2
    36     31     27   1
    37     29     32   1
    38     32     33   2
    39     33     34   1
    40     34     35   2
    41     35     30   1
    42      7     31   1
    43      2     36   1
    44      3     37   1
    45      9     38   1
    46     10     39   1
    47     14     40   1
    48     15     41   1
    49     16     42   1
    50     17     43   1
    51     18     44   1
    52     19     45   1
    53     20     46   1
    54     21     47   1
    55     22     48   1
    56     23     49   1
    57     24     50   1
    58     25     51   1
    59     32     52   1
    60     33     53   1
    61     34     54   1
    62     35     55   1
    63     56     57   2
    64     57     58   1
    65     58     59   2
    66     59     60   1
    67     60     61   2
    68     61     56   1
    69     62     63   3
    70     59     62   1
    71     57     64   1
    72     58     65   1
    73     60     66   1
    74     61     67   1
    75     28     56   1
