# Produced with molli package
@<TRIPOS>MOLECULE
D_3_R
67 75 0 0 0
SMALL
USER_CHARGES

@<TRIPOS>ATOM
     1 C      -6.653281     3.604667     0.349431 C          1 UNL1 0.000
     2 C      -5.328547     3.920343     0.054725 C          1 UNL1 0.000
     3 C      -4.335949     2.945008     0.073485 C          1 UNL1 0.000
     4 C      -4.711336     1.610343     0.297225 C          1 UNL1 0.000
     5 C      -6.042380     1.212138     0.475046 C          1 UNL1 0.000
     6 C      -7.024414     2.259452     0.618146 C          1 UNL1 0.000
     7 N      -3.919616     0.484874     0.434479 N          1 UNL1 0.000
     8 C      -4.704401    -0.643158     0.590358 C          1 UNL1 0.000
     9 C      -4.319654    -1.977440     0.800202 C          1 UNL1 0.000
    10 C      -5.310038    -2.953480     0.859042 C          1 UNL1 0.000
    11 C      -6.645982    -2.638836     0.618661 C          1 UNL1 0.000
    12 C      -7.028202    -1.294538     0.361451 C          1 UNL1 0.000
    13 C      -6.041732    -0.246533     0.462120 C          1 UNL1 0.000
    14 C      -7.616320     4.624287     0.422041 C          1 UNL1 0.000
    15 C      -8.925614     4.347458     0.811942 C          1 UNL1 0.000
    16 C      -9.279733     3.052115     1.165162 C          1 UNL1 0.000
    17 C      -8.336774     2.024488     1.084620 C          1 UNL1 0.000
    18 C      -8.359292    -1.060677    -0.048934 C          1 UNL1 0.000
    19 C      -9.305372    -2.087965    -0.083677 C          1 UNL1 0.000
    20 C      -8.936738    -3.382070     0.259107 C          1 UNL1 0.000
    21 C      -7.611624    -3.658267     0.591843 C          1 UNL1 0.000
    22 C      -2.506304     0.530646     2.944069 C          1 UNL1 0.000
    23 C      -1.825576     0.555932     4.159302 C          1 UNL1 0.000
    24 C      -0.444370     0.574125     4.162230 C          1 UNL1 0.000
    25 C       0.244502     0.562717     2.949578 C          1 UNL1 0.000
    26 C      -0.416735     0.523538     1.692474 C          1 UNL1 0.000
    27 C      -1.829833     0.511058     1.692946 C          1 UNL1 0.000
    28 C       0.290402     0.504574     0.445422 C          1 UNL1 0.000
    29 C      -0.409507     0.503400    -0.805521 C          1 UNL1 0.000
    30 C      -1.822806     0.488018    -0.814452 C          1 UNL1 0.000
    31 C      -2.497909     0.490305     0.437146 C          1 UNL1 0.000
    32 C       0.259605     0.512633    -2.058472 C          1 UNL1 0.000
    33 C      -0.421948     0.495697    -3.275207 C          1 UNL1 0.000
    34 C      -1.803226     0.465433    -3.280395 C          1 UNL1 0.000
    35 C      -2.491842     0.460510    -2.069170 C          1 UNL1 0.000
    36 H      -5.035754     4.951533    -0.133884 H          1 UNL1 0.000
    37 H      -3.296059     3.221319    -0.081966 H          1 UNL1 0.000
    38 H      -3.274821    -2.251980     0.918055 H          1 UNL1 0.000
    39 H      -5.010252    -3.984173     1.038740 H          1 UNL1 0.000
    40 H      -7.346479     5.653790     0.195641 H          1 UNL1 0.000
    41 H      -9.656297     5.149459     0.872912 H          1 UNL1 0.000
    42 H     -10.284972     2.838718     1.519018 H          1 UNL1 0.000
    43 H      -8.628052     1.043872     1.446405 H          1 UNL1 0.000
    44 H      -8.665682    -0.080905    -0.400652 H          1 UNL1 0.000
    45 H     -10.325300    -1.875069    -0.393089 H          1 UNL1 0.000
    46 H      -9.670187    -4.183503     0.234635 H          1 UNL1 0.000
    47 H      -7.333063    -4.686921     0.811225 H          1 UNL1 0.000
    48 H      -3.594460     0.532064     2.991177 H          1 UNL1 0.000
    49 H      -2.379266     0.571432     5.094254 H          1 UNL1 0.000
    50 H       0.102147     0.607534     5.100851 H          1 UNL1 0.000
    51 H       1.331000     0.603502     3.003494 H          1 UNL1 0.000
    52 H       1.346797     0.549002    -2.104656 H          1 UNL1 0.000
    53 H       0.130748     0.509857    -4.210682 H          1 UNL1 0.000
    54 H      -2.350440     0.450615    -4.219153 H          1 UNL1 0.000
    55 H      -3.579453     0.435876    -2.121980 H          1 UNL1 0.000
    56 C       1.766888     0.455149     0.450363 C          1 UNL1 0.000
    57 N       2.404009     1.645073     0.297767 N          1 UNL1 0.000
    58 C       3.760472     1.639171     0.302006 C          1 UNL1 0.000
    59 C       4.509453     0.484805     0.459757 C          1 UNL1 0.000
    60 C       3.851872    -0.736013     0.616123 C          1 UNL1 0.000
    61 C       2.457217    -0.749521     0.606487 C          1 UNL1 0.000
    62 N       5.961362     0.559265     0.464345 N          1 UNL1 0.000
    63 O       6.485202     1.607677     0.063150 O          1 UNL1 0.000
    64 O       6.584215    -0.431808     0.868590 O          1 UNL1 0.000
    65 H       4.214828     2.619076     0.176089 H          1 UNL1 0.000
    66 H       4.399776    -1.666709     0.742317 H          1 UNL1 0.000
    67 H       1.914932    -1.683751     0.724548 H          1 UNL1 0.000
@<TRIPOS>BOND
     1      1      2   2
     2      2      3   1
     3      3      4   2
     4      4      5   1
     5      5      6   2
     6      6      1   1
     7      4      7   1
     8      7      8   1
     9      8      9   2
    10      9     10   1
    11     10     11   2
    12     11     12   1
    13     12     13   2
    14     13      8   1
    15     13      5   1
    16      1     14   1
    17     14     15   2
    18     15     16   1
    19     16     17   2
    20     17      6   1
    21     12     18   1
    22     18     19   2
    23     19     20   1
    24     20     21   2
    25     21     11   1
    26     22     23   2
    27     23     24   1
    28     24     25   2
    29     25     26   1
    30     26     27   2
    31     27     22   1
    32     26     28   1
    33     28     29   2
    34     29     30   1
    35     30     31   2
    36     31     27   1
    37     29     32   1
    38     32     33   2
    39     33     34   1
    40     34     35   2
    41     35     30   1
    42      7     31   1
    43      2     36   1
    44      3     37   1
    45      9     38   1
    46     10     39   1
    47     14     40   1
    48     15     41   1
    49     16     42   1
    50     17     43   1
    51     18     44   1
    52     19     45   1
    53     20     46   1
    54     21     47   1
    55     22     48   1
    56     23     49   1
    57     24     50   1
    58     25     51   1
    59     32     52   1
    60     33     53   1
    61     34     54   1
    62     35     55   1
    63     56     57   2
    64     57     58   1
    65     58     59   2
    66     59     60   1
    67     60     61   2
    68     61     56   1
    69     62     63   2
    70     62     64   1
    71     59     62   1
    72     58     65   1
    73     60     66   1
    74     61     67   1
    75     28     56   1
