# Produced with molli package
@<TRIPOS>MOLECULE
D_3_T
69 77 0 0 0
SMALL
USER_CHARGES

@<TRIPOS>ATOM
     1 C      -6.754422     3.645277     0.635529 C          1 UNL1 0.000
     2 C      -5.417892     3.967892     0.857597 C          1 UNL1 0.000
     3 C      -4.427171     2.992132     0.819820 C          1 UNL1 0.000
     4 C      -4.809973     1.652077     0.646425 C          1 UNL1 0.000
     5 C      -6.146163     1.249148     0.517662 C          1 UNL1 0.000
     6 C      -7.135543     2.295978     0.400911 C          1 UNL1 0.000
     7 N      -4.019082     0.523869     0.529606 N          1 UNL1 0.000
     8 C      -4.804529    -0.606835     0.400868 C          1 UNL1 0.000
     9 C      -4.416514    -1.942729     0.207664 C          1 UNL1 0.000
    10 C      -5.403672    -2.921506     0.156139 C          1 UNL1 0.000
    11 C      -6.739974    -2.608225     0.392647 C          1 UNL1 0.000
    12 C      -7.124401    -1.264934     0.653768 C          1 UNL1 0.000
    13 C      -6.141877    -0.212017     0.539746 C          1 UNL1 0.000
    14 C      -7.721430     4.663622     0.606463 C          1 UNL1 0.000
    15 C      -9.050770     4.381986     0.297863 C          1 UNL1 0.000
    16 C      -9.420019     3.084385    -0.028302 C          1 UNL1 0.000
    17 C      -8.469856     2.060186     0.001628 C          1 UNL1 0.000
    18 C      -8.454734    -1.040940     1.072122 C          1 UNL1 0.000
    19 C      -9.400743    -2.069118     1.092768 C          1 UNL1 0.000
    20 C      -9.030851    -3.358553     0.735652 C          1 UNL1 0.000
    21 C      -7.703613    -3.629891     0.409052 C          1 UNL1 0.000
    22 C      -2.601183     0.538562     3.039768 C          1 UNL1 0.000
    23 C      -1.917211     0.548444     4.253874 C          1 UNL1 0.000
    24 C      -0.535674     0.551228     4.254231 C          1 UNL1 0.000
    25 C       0.150881     0.541276     3.040271 C          1 UNL1 0.000
    26 C      -0.513492     0.532586     1.784895 C          1 UNL1 0.000
    27 C      -1.926800     0.536406     1.787293 C          1 UNL1 0.000
    28 C       0.193353     0.514644     0.537740 C          1 UNL1 0.000
    29 C      -0.509100     0.506567    -0.712173 C          1 UNL1 0.000
    30 C      -1.922162     0.513735    -0.720080 C          1 UNL1 0.000
    31 C      -2.596918     0.526430     0.532233 C          1 UNL1 0.000
    32 C       0.159691     0.493749    -1.965165 C          1 UNL1 0.000
    33 C      -0.522388     0.488875    -3.181663 C          1 UNL1 0.000
    34 C      -1.903795     0.501028    -3.186492 C          1 UNL1 0.000
    35 C      -2.591979     0.516286    -1.974987 C          1 UNL1 0.000
    36 H      -5.117838     5.002904     1.010044 H          1 UNL1 0.000
    37 H      -3.382083     3.271152     0.927400 H          1 UNL1 0.000
    38 H      -3.370855    -2.215477     0.090215 H          1 UNL1 0.000
    39 H      -5.100621    -3.952257    -0.017563 H          1 UNL1 0.000
    40 H      -7.441198     5.695234     0.809435 H          1 UNL1 0.000
    41 H      -9.786511     5.181345     0.277881 H          1 UNL1 0.000
    42 H     -10.443630     2.865672    -0.320961 H          1 UNL1 0.000
    43 H      -8.778168     1.080089    -0.345453 H          1 UNL1 0.000
    44 H      -8.761448    -0.067789     1.440468 H          1 UNL1 0.000
    45 H     -10.421795    -1.860185     1.401043 H          1 UNL1 0.000
    46 H      -9.764074    -4.160420     0.745608 H          1 UNL1 0.000
    47 H      -7.422245    -4.656075     0.181666 H          1 UNL1 0.000
    48 H      -3.688999     0.530289     3.088366 H          1 UNL1 0.000
    49 H      -2.468238     0.551655     5.190414 H          1 UNL1 0.000
    50 H       0.014492     0.557400     5.191213 H          1 UNL1 0.000
    51 H       1.238805     0.538220     3.089411 H          1 UNL1 0.000
    52 H       1.247789     0.489329    -2.010391 H          1 UNL1 0.000
    53 H       0.031247     0.478747    -4.116529 H          1 UNL1 0.000
    54 H      -2.451512     0.500777    -4.124940 H          1 UNL1 0.000
    55 H      -3.679533     0.532058    -2.027585 H          1 UNL1 0.000
    56 C       1.676124     0.496668     0.539384 C          1 UNL1 0.000
    57 C       2.409514     1.692508     0.565844 C          1 UNL1 0.000
    58 C       3.807045     1.672968     0.563786 C          1 UNL1 0.000
    59 C       4.499421     0.457745     0.522203 C          1 UNL1 0.000
    60 C       3.773518    -0.738424     0.511108 C          1 UNL1 0.000
    61 C       2.376391    -0.719103     0.515501 C          1 UNL1 0.000
    62 C       5.999059     0.432055     0.550524 C          1 UNL1 0.000
    63 H       1.889945     2.648304     0.591049 H          1 UNL1 0.000
    64 H       4.350279     2.614903     0.592641 H          1 UNL1 0.000
    65 H       4.290914    -1.695152     0.497296 H          1 UNL1 0.000
    66 H       1.830442    -1.660329     0.500477 H          1 UNL1 0.000
    67 H       6.384008    -0.396744    -0.053001 H          1 UNL1 0.000
    68 H       6.352219     0.316751     1.579849 H          1 UNL1 0.000
    69 H       6.416388     1.355967     0.136510 H          1 UNL1 0.000
@<TRIPOS>BOND
     1      1      2   2
     2      2      3   1
     3      3      4   2
     4      4      5   1
     5      5      6   2
     6      6      1   1
     7      4      7   1
     8      7      8   1
     9      8      9   2
    10      9     10   1
    11     10     11   2
    12     11     12   1
    13     12     13   2
    14     13      8   1
    15     13      5   1
    16      1     14   1
    17     14     15   2
    18     15     16   1
    19     16     17   2
    20     17      6   1
    21     12     18   1
    22     18     19   2
    23     19     20   1
    24     20     21   2
    25     21     11   1
    26     22     23   2
    27     23     24   1
    28     24     25   2
    29     25     26   1
    30     26     27   2
    31     27     22   1
    32     26     28   1
    33     28     29   2
    34     29     30   1
    35     30     31   2
    36     31     27   1
    37     29     32   1
    38     32     33   2
    39     33     34   1
    40     34     35   2
    41     35     30   1
    42      7     31   1
    43      2     36   1
    44      3     37   1
    45      9     38   1
    46     10     39   1
    47     14     40   1
    48     15     41   1
    49     16     42   1
    50     17     43   1
    51     18     44   1
    52     19     45   1
    53     20     46   1
    54     21     47   1
    55     22     48   1
    56     23     49   1
    57     24     50   1
    58     25     51   1
    59     32     52   1
    60     33     53   1
    61     34     54   1
    62     35     55   1
    63     56     57   2
    64     57     58   1
    65     58     59   2
    66     59     60   1
    67     60     61   2
    68     61     56   1
    69     59     62   1
    70     57     63   1
    71     58     64   1
    72     60     65   1
    73     61     66   1
    74     62     67   1
    75     62     68   1
    76     62     69   1
    77     28     56   1
