# Produced with molli package
@<TRIPOS>MOLECULE
D_3_P
70 78 0 0 0
SMALL
USER_CHARGES

@<TRIPOS>ATOM
     1 C      -6.715557     3.571419     0.608660 C          1 UNL1 0.000
     2 C      -5.381831     3.895517     0.844129 C          1 UNL1 0.000
     3 C      -4.392251     2.918409     0.830370 C          1 UNL1 0.000
     4 C      -4.774900     1.577080     0.667922 C          1 UNL1 0.000
     5 C      -6.109928     1.172757     0.532664 C          1 UNL1 0.000
     6 C      -7.096421     2.219108     0.389312 C          1 UNL1 0.000
     7 N      -3.983669     0.448103     0.568151 N          1 UNL1 0.000
     8 C      -4.767228    -0.685283     0.459511 C          1 UNL1 0.000
     9 C      -4.376145    -2.023872     0.294693 C          1 UNL1 0.000
    10 C      -5.361655    -3.004713     0.255887 C          1 UNL1 0.000
    11 C      -6.700530    -2.688129     0.472516 C          1 UNL1 0.000
    12 C      -7.089604    -1.339906     0.700984 C          1 UNL1 0.000
    13 C      -6.106133    -0.288371     0.578723 C          1 UNL1 0.000
    14 C      -7.679182     4.591481     0.550468 C          1 UNL1 0.000
    15 C      -9.004540     4.308318     0.227092 C          1 UNL1 0.000
    16 C      -9.372766     3.006386    -0.082927 C          1 UNL1 0.000
    17 C      -8.426126     1.980033    -0.023068 C          1 UNL1 0.000
    18 C      -8.425809    -1.109488     1.096777 C          1 UNL1 0.000
    19 C      -9.370390    -2.138937     1.128014 C          1 UNL1 0.000
    20 C      -8.993884    -3.435440     0.805081 C          1 UNL1 0.000
    21 C      -7.662416    -3.711182     0.500554 C          1 UNL1 0.000
    22 C      -2.544063     0.398994     3.063521 C          1 UNL1 0.000
    23 C      -1.849633     0.387334     4.271401 C          1 UNL1 0.000
    24 C      -0.468068     0.408450     4.259721 C          1 UNL1 0.000
    25 C       0.207345     0.438901     3.040019 C          1 UNL1 0.000
    26 C      -0.467308     0.454292     1.790397 C          1 UNL1 0.000
    27 C      -1.881033     0.436988     1.806077 C          1 UNL1 0.000
    28 C       0.227524     0.486560     0.536324 C          1 UNL1 0.000
    29 C      -0.485913     0.505704    -0.706518 C          1 UNL1 0.000
    30 C      -1.899860     0.491109    -0.700286 C          1 UNL1 0.000
    31 C      -2.561591     0.455368     0.558040 C          1 UNL1 0.000
    32 C       0.169353     0.544991    -1.965628 C          1 UNL1 0.000
    33 C      -0.525522     0.570070    -3.174691 C          1 UNL1 0.000
    34 C      -1.907279     0.558635    -3.165367 C          1 UNL1 0.000
    35 C      -2.582478     0.521163    -1.947380 C          1 UNL1 0.000
    36 H      -5.082218     4.932000     0.987134 H          1 UNL1 0.000
    37 H      -3.348090     3.197288     0.946826 H          1 UNL1 0.000
    38 H      -3.329236    -2.297207     0.190714 H          1 UNL1 0.000
    39 H      -5.055981    -4.038549     0.106664 H          1 UNL1 0.000
    40 H      -7.398985     5.625514     0.740953 H          1 UNL1 0.000
    41 H      -9.737441     5.109346     0.183201 H          1 UNL1 0.000
    42 H     -10.392804     2.785951    -0.386572 H          1 UNL1 0.000
    43 H      -8.732525     0.995194    -0.358237 H          1 UNL1 0.000
    44 H      -8.739351    -0.129276     1.439482 H          1 UNL1 0.000
    45 H     -10.395752    -1.925293     1.418306 H          1 UNL1 0.000
    46 H      -9.725660    -4.238486     0.824387 H          1 UNL1 0.000
    47 H      -7.376609    -4.741679     0.299583 H          1 UNL1 0.000
    48 H      -3.631559     0.377542     3.120860 H          1 UNL1 0.000
    49 H      -2.391754     0.360963     5.212692 H          1 UNL1 0.000
    50 H       0.090526     0.399697     5.191689 H          1 UNL1 0.000
    51 H       1.295797     0.451079     3.081059 H          1 UNL1 0.000
    52 H       1.256796     0.559980    -2.021821 H          1 UNL1 0.000
    53 H       0.017272     0.601347    -4.115352 H          1 UNL1 0.000
    54 H      -2.465037     0.580924    -4.097616 H          1 UNL1 0.000
    55 H      -3.670945     0.518366    -1.988533 H          1 UNL1 0.000
    56 C       1.710846     0.508094     0.528084 C          1 UNL1 0.000
    57 C       2.446609    -0.688551     0.470377 C          1 UNL1 0.000
    58 C       3.843493    -0.667256     0.484280 C          1 UNL1 0.000
    59 C       4.511373     0.553219     0.544554 C          1 UNL1 0.000
    60 C       3.802641     1.748615     0.620778 C          1 UNL1 0.000
    61 C       2.407066     1.726818     0.601347 C          1 UNL1 0.000
    62 O       5.876649     0.597781     0.613589 O          1 UNL1 0.000
    63 C       6.444286     0.431559    -0.685407 C          1 UNL1 0.000
    64 H       1.927718    -1.644194     0.427671 H          1 UNL1 0.000
    65 H       4.401707    -1.598434     0.464111 H          1 UNL1 0.000
    66 H       4.333530     2.692786     0.698435 H          1 UNL1 0.000
    67 H       1.858459     2.664790     0.658054 H          1 UNL1 0.000
    68 H       7.516990     0.633846    -0.609355 H          1 UNL1 0.000
    69 H       6.017527     1.140525    -1.404170 H          1 UNL1 0.000
    70 H       6.316718    -0.596496    -1.040114 H          1 UNL1 0.000
@<TRIPOS>BOND
     1      1      2   2
     2      2      3   1
     3      3      4   2
     4      4      5   1
     5      5      6   2
     6      6      1   1
     7      4      7   1
     8      7      8   1
     9      8      9   2
    10      9     10   1
    11     10     11   2
    12     11     12   1
    13     12     13   2
    14     13      8   1
    15     13      5   1
    16      1     14   1
    17     14     15   2
    18     15     16   1
    19     16     17   2
    20     17      6   1
    21     12     18   1
    22     18     19   2
    23     19     20   1
    24     20     21   2
    25     21     11   1
    26     22     23   2
    27     23     24   1
    28     24     25   2
    29     25     26   1
    30     26     27   2
    31     27     22   1
    32     26     28   1
    33     28     29   2
    34     29     30   1
    35     30     31   2
    36     31     27   1
    37     29     32   1
    38     32     33   2
    39     33     34   1
    40     34     35   2
    41     35     30   1
    42      7     31   1
    43      2     36   1
    44      3     37   1
    45      9     38   1
    46     10     39   1
    47     14     40   1
    48     15     41   1
    49     16     42   1
    50     17     43   1
    51     18     44   1
    52     19     45   1
    53     20     46   1
    54     21     47   1
    55     22     48   1
    56     23     49   1
    57     24     50   1
    58     25     51   1
    59     32     52   1
    60     33     53   1
    61     34     54   1
    62     35     55   1
    63     56     57   2
    64     57     58   1
    65     58     59   2
    66     59     60   1
    67     60     61   2
    68     61     56   1
    69     62     63   1
    70     59     62   1
    71     57     64   1
    72     58     65   1
    73     60     66   1
    74     61     67   1
    75     63     68   1
    76     63     69   1
    77     63     70   1
    78     28     56   1
