# Produced with molli package
@<TRIPOS>MOLECULE
D_3_K
68 76 0 0 0
SMALL
USER_CHARGES

@<TRIPOS>ATOM
     1 C      -6.716766     3.615932     0.413543 C          1 UNL1 0.000
     2 C      -5.386999     3.958418     0.177576 C          1 UNL1 0.000
     3 C      -4.382437     2.995588     0.195345 C          1 UNL1 0.000
     4 C      -4.746373     1.649752     0.363186 C          1 UNL1 0.000
     5 C      -6.076751     1.228054     0.487281 C          1 UNL1 0.000
     6 C      -7.078560     2.257874     0.625907 C          1 UNL1 0.000
     7 N      -3.943217     0.530497     0.478410 N          1 UNL1 0.000
     8 C      -4.715103    -0.610807     0.591982 C          1 UNL1 0.000
     9 C      -4.314753    -1.943342     0.782202 C          1 UNL1 0.000
    10 C      -5.290444    -2.935136     0.793002 C          1 UNL1 0.000
    11 C      -6.623550    -2.635236     0.521607 C          1 UNL1 0.000
    12 C      -7.020060    -1.291396     0.282364 C          1 UNL1 0.000
    13 C      -6.054105    -0.230480     0.436776 C          1 UNL1 0.000
    14 C      -7.695855     4.620619     0.481002 C          1 UNL1 0.000
    15 C      -9.015695     4.314918     0.808313 C          1 UNL1 0.000
    16 C      -9.365176     3.004584     1.105934 C          1 UNL1 0.000
    17 C      -8.404877     1.992407     1.032785 C          1 UNL1 0.000
    18 C      -8.341887    -1.070716    -0.163501 C          1 UNL1 0.000
    19 C      -9.269266    -2.112293    -0.247722 C          1 UNL1 0.000
    20 C      -8.889749    -3.407249     0.079689 C          1 UNL1 0.000
    21 C      -7.570658    -3.669192     0.445456 C          1 UNL1 0.000
    22 C      -2.532159     0.589947     2.987964 C          1 UNL1 0.000
    23 C      -1.851777     0.594930     4.203613 C          1 UNL1 0.000
    24 C      -0.470424     0.572832     4.207507 C          1 UNL1 0.000
    25 C       0.219253     0.551154     2.995326 C          1 UNL1 0.000
    26 C      -0.441489     0.549501     1.737836 C          1 UNL1 0.000
    27 C      -1.854563     0.561021     1.737920 C          1 UNL1 0.000
    28 C       0.266034     0.535995     0.490530 C          1 UNL1 0.000
    29 C      -0.434269     0.530329    -0.760960 C          1 UNL1 0.000
    30 C      -1.847412     0.531278    -0.769443 C          1 UNL1 0.000
    31 C      -2.522017     0.547396     0.482429 C          1 UNL1 0.000
    32 C       0.234210     0.519826    -2.014413 C          1 UNL1 0.000
    33 C      -0.447953     0.502501    -3.230824 C          1 UNL1 0.000
    34 C      -1.829421     0.494850    -3.235373 C          1 UNL1 0.000
    35 C      -2.517313     0.508083    -2.023871 C          1 UNL1 0.000
    36 H      -5.102860     4.999171     0.033601 H          1 UNL1 0.000
    37 H      -3.342250     3.289383     0.081325 H          1 UNL1 0.000
    38 H      -3.269024    -2.204545     0.921865 H          1 UNL1 0.000
    39 H      -4.979016    -3.964768     0.958444 H          1 UNL1 0.000
    40 H      -7.431990     5.660266     0.298069 H          1 UNL1 0.000
    41 H      -9.759723     5.104959     0.864081 H          1 UNL1 0.000
    42 H     -10.381011     2.766834     1.410702 H          1 UNL1 0.000
    43 H      -8.696963     0.997893     1.353087 H          1 UNL1 0.000
    44 H      -8.653617    -0.089183    -0.505326 H          1 UNL1 0.000
    45 H     -10.282918    -1.909651    -0.583467 H          1 UNL1 0.000
    46 H      -9.608636    -4.219735     0.017276 H          1 UNL1 0.000
    47 H      -7.281322    -4.697647     0.651611 H          1 UNL1 0.000
    48 H      -3.620235     0.611136     3.033427 H          1 UNL1 0.000
    49 H      -2.405429     0.615972     5.138492 H          1 UNL1 0.000
    50 H       0.076117     0.574857     5.146751 H          1 UNL1 0.000
    51 H       1.306308     0.535750     3.049986 H          1 UNL1 0.000
    52 H       1.321692     0.523158    -2.062449 H          1 UNL1 0.000
    53 H       0.104453     0.492252    -4.166589 H          1 UNL1 0.000
    54 H      -2.377348     0.478007    -4.173713 H          1 UNL1 0.000
    55 H      -3.605192     0.498441    -2.076391 H          1 UNL1 0.000
    56 C       1.748864     0.525559     0.494579 C          1 UNL1 0.000
    57 C       2.471552     1.730623     0.558171 C          1 UNL1 0.000
    58 C       3.868598     1.726390     0.564705 C          1 UNL1 0.000
    59 C       4.548988     0.505331     0.498072 C          1 UNL1 0.000
    60 C       3.851428    -0.705594     0.430290 C          1 UNL1 0.000
    61 C       2.454530    -0.689867     0.433388 C          1 UNL1 0.000
    62 N       6.011714     0.495604     0.499116 N          1 UNL1 0.000
    63 O       6.590604     1.453341     1.029026 O          1 UNL1 0.000
    64 O       6.577724    -0.471677    -0.031119 O          1 UNL1 0.000
    65 H       1.939739     2.680173     0.605006 H          1 UNL1 0.000
    66 H       4.406297     2.670789     0.616081 H          1 UNL1 0.000
    67 H       4.375750    -1.657674     0.379791 H          1 UNL1 0.000
    68 H       1.909350    -1.631712     0.384524 H          1 UNL1 0.000
@<TRIPOS>BOND
     1      1      2   2
     2      2      3   1
     3      3      4   2
     4      4      5   1
     5      5      6   2
     6      6      1   1
     7      4      7   1
     8      7      8   1
     9      8      9   2
    10      9     10   1
    11     10     11   2
    12     11     12   1
    13     12     13   2
    14     13      8   1
    15     13      5   1
    16      1     14   1
    17     14     15   2
    18     15     16   1
    19     16     17   2
    20     17      6   1
    21     12     18   1
    22     18     19   2
    23     19     20   1
    24     20     21   2
    25     21     11   1
    26     22     23   2
    27     23     24   1
    28     24     25   2
    29     25     26   1
    30     26     27   2
    31     27     22   1
    32     26     28   1
    33     28     29   2
    34     29     30   1
    35     30     31   2
    36     31     27   1
    37     29     32   1
    38     32     33   2
    39     33     34   1
    40     34     35   2
    41     35     30   1
    42      7     31   1
    43      2     36   1
    44      3     37   1
    45      9     38   1
    46     10     39   1
    47     14     40   1
    48     15     41   1
    49     16     42   1
    50     17     43   1
    51     18     44   1
    52     19     45   1
    53     20     46   1
    54     21     47   1
    55     22     48   1
    56     23     49   1
    57     24     50   1
    58     25     51   1
    59     32     52   1
    60     33     53   1
    61     34     54   1
    62     35     55   1
    63     56     57   2
    64     57     58   1
    65     58     59   2
    66     59     60   1
    67     60     61   2
    68     61     56   1
    69     62     63   2
    70     62     64   1
    71     59     62   1
    72     57     65   1
    73     58     66   1
    74     60     67   1
    75     61     68   1
    76     28     56   1
