# Produced with molli package
@<TRIPOS>MOLECULE
D_3_O
65 73 0 0 0
SMALL
USER_CHARGES

@<TRIPOS>ATOM
     1 C      -6.703397     3.569834     0.762365 C          1 UNL1 0.000
     2 C      -5.368864     3.873137     1.021664 C          1 UNL1 0.000
     3 C      -4.382157     2.895204     0.945709 C          1 UNL1 0.000
     4 C      -4.770513     1.566472     0.708232 C          1 UNL1 0.000
     5 C      -6.107450     1.178757     0.549560 C          1 UNL1 0.000
     6 C      -7.086735     2.236001     0.456190 C          1 UNL1 0.000
     7 N      -3.986816     0.438809     0.546001 N          1 UNL1 0.000
     8 C      -4.779491    -0.685338     0.404563 C          1 UNL1 0.000
     9 C      -4.399467    -2.022638     0.205824 C          1 UNL1 0.000
    10 C      -5.392373    -2.995417     0.149337 C          1 UNL1 0.000
    11 C      -6.728905    -2.673796     0.373744 C          1 UNL1 0.000
    12 C      -7.107765    -1.327788     0.629427 C          1 UNL1 0.000
    13 C      -6.115177    -0.281958     0.537391 C          1 UNL1 0.000
    14 C      -7.666117     4.592458     0.767146 C          1 UNL1 0.000
    15 C      -8.989499     4.332996     0.415611 C          1 UNL1 0.000
    16 C      -9.356308     3.055736     0.013797 C          1 UNL1 0.000
    17 C      -8.412057     2.025879     0.015446 C          1 UNL1 0.000
    18 C      -8.443259    -1.094485     1.026218 C          1 UNL1 0.000
    19 C      -9.395766    -2.116721     1.037293 C          1 UNL1 0.000
    20 C      -9.027982    -3.410265     0.693814 C          1 UNL1 0.000
    21 C      -7.698318    -3.690218     0.384701 C          1 UNL1 0.000
    22 C      -2.551652     0.389447     3.046334 C          1 UNL1 0.000
    23 C      -1.860062     0.393518     4.255827 C          1 UNL1 0.000
    24 C      -0.479140     0.441007     4.247329 C          1 UNL1 0.000
    25 C       0.198300     0.474652     3.029038 C          1 UNL1 0.000
    26 C      -0.473666     0.461339     1.778054 C          1 UNL1 0.000
    27 C      -1.886933     0.431528     1.789831 C          1 UNL1 0.000
    28 C       0.224012     0.475329     0.526578 C          1 UNL1 0.000
    29 C      -0.484298     0.480981    -0.718589 C          1 UNL1 0.000
    30 C      -1.898346     0.457767    -0.717575 C          1 UNL1 0.000
    31 C      -2.564327     0.435557     0.539418 C          1 UNL1 0.000
    32 C       0.176750     0.515898    -1.974998 C          1 UNL1 0.000
    33 C      -0.512322     0.517368    -3.187445 C          1 UNL1 0.000
    34 C      -1.893999     0.492128    -3.184071 C          1 UNL1 0.000
    35 C      -2.574868     0.468319    -1.968521 C          1 UNL1 0.000
    36 H      -5.065693     4.897227     1.231136 H          1 UNL1 0.000
    37 H      -3.336817     3.163028     1.078870 H          1 UNL1 0.000
    38 H      -3.354865    -2.301817     0.095380 H          1 UNL1 0.000
    39 H      -5.094478    -4.028376    -0.020142 H          1 UNL1 0.000
    40 H      -7.386467     5.610600     1.030073 H          1 UNL1 0.000
    41 H      -9.721658     5.135870     0.421266 H          1 UNL1 0.000
    42 H     -10.373401     2.858168    -0.314317 H          1 UNL1 0.000
    43 H      -8.714660     1.063993    -0.385016 H          1 UNL1 0.000
    44 H      -8.751096    -0.118819     1.385923 H          1 UNL1 0.000
    45 H     -10.419958    -1.899797     1.329266 H          1 UNL1 0.000
    46 H      -9.765494    -4.208196     0.700223 H          1 UNL1 0.000
    47 H      -7.419822    -4.719341     0.167383 H          1 UNL1 0.000
    48 H      -3.638799     0.351800     3.101574 H          1 UNL1 0.000
    49 H      -2.404372     0.364964     5.195688 H          1 UNL1 0.000
    50 H       0.076832     0.455076     5.180585 H          1 UNL1 0.000
    51 H       1.285791     0.524922     3.070609 H          1 UNL1 0.000
    52 H       1.264133     0.559466    -2.025465 H          1 UNL1 0.000
    53 H       0.034834     0.548172    -4.125596 H          1 UNL1 0.000
    54 H      -2.447152     0.499565    -4.119270 H          1 UNL1 0.000
    55 H      -3.663042     0.461551    -2.014758 H          1 UNL1 0.000
    56 C       1.701628     0.461019     0.523373 C          1 UNL1 0.000
    57 N       2.305778     1.674361     0.561954 N          1 UNL1 0.000
    58 C       3.656118     1.694359     0.577329 C          1 UNL1 0.000
    59 C       4.444337     0.556187     0.555945 C          1 UNL1 0.000
    60 C       3.811895    -0.680462     0.514111 C          1 UNL1 0.000
    61 C       2.420808    -0.733635     0.497341 C          1 UNL1 0.000
    62 H       4.102217     2.684340     0.610301 H          1 UNL1 0.000
    63 H       5.525806     0.632542     0.572444 H          1 UNL1 0.000
    64 H       4.395629    -1.596337     0.497167 H          1 UNL1 0.000
    65 H       1.905590    -1.688457     0.468665 H          1 UNL1 0.000
@<TRIPOS>BOND
     1      1      2   2
     2      2      3   1
     3      3      4   2
     4      4      5   1
     5      5      6   2
     6      6      1   1
     7      4      7   1
     8      7      8   1
     9      8      9   2
    10      9     10   1
    11     10     11   2
    12     11     12   1
    13     12     13   2
    14     13      8   1
    15     13      5   1
    16      1     14   1
    17     14     15   2
    18     15     16   1
    19     16     17   2
    20     17      6   1
    21     12     18   1
    22     18     19   2
    23     19     20   1
    24     20     21   2
    25     21     11   1
    26     22     23   2
    27     23     24   1
    28     24     25   2
    29     25     26   1
    30     26     27   2
    31     27     22   1
    32     26     28   1
    33     28     29   2
    34     29     30   1
    35     30     31   2
    36     31     27   1
    37     29     32   1
    38     32     33   2
    39     33     34   1
    40     34     35   2
    41     35     30   1
    42      7     31   1
    43      2     36   1
    44      3     37   1
    45      9     38   1
    46     10     39   1
    47     14     40   1
    48     15     41   1
    49     16     42   1
    50     17     43   1
    51     18     44   1
    52     19     45   1
    53     20     46   1
    54     21     47   1
    55     22     48   1
    56     23     49   1
    57     24     50   1
    58     25     51   1
    59     32     52   1
    60     33     53   1
    61     34     54   1
    62     35     55   1
    63     56     57   2
    64     57     58   1
    65     58     59   2
    66     59     60   1
    67     60     61   2
    68     61     56   1
    69     58     62   1
    70     59     63   1
    71     60     64   1
    72     61     65   1
    73     28     56   1
