# Produced with molli package
@<TRIPOS>MOLECULE
D_3_S
71 79 0 0 0
SMALL
USER_CHARGES

@<TRIPOS>ATOM
     1 C      -6.694690     3.660513     0.461694 C          1 UNL1 0.000
     2 C      -5.371778     3.978432     0.759054 C          1 UNL1 0.000
     3 C      -4.382962     3.000133     0.767598 C          1 UNL1 0.000
     4 C      -4.761939     1.660900     0.580339 C          1 UNL1 0.000
     5 C      -6.091755     1.262370     0.387563 C          1 UNL1 0.000
     6 C      -7.065789     2.313090     0.202335 C          1 UNL1 0.000
     7 N      -3.971998     0.529296     0.500812 N          1 UNL1 0.000
     8 C      -4.757986    -0.603853     0.400490 C          1 UNL1 0.000
     9 C      -4.366335    -1.948895     0.301229 C          1 UNL1 0.000
    10 C      -5.352537    -2.928215     0.254548 C          1 UNL1 0.000
    11 C      -6.699184    -2.600047     0.387064 C          1 UNL1 0.000
    12 C      -7.094278    -1.243100     0.544976 C          1 UNL1 0.000
    13 C      -6.098987    -0.198427     0.448266 C          1 UNL1 0.000
    14 C      -7.656000     4.681276     0.381567 C          1 UNL1 0.000
    15 C      -8.964263     4.404729    -0.010434 C          1 UNL1 0.000
    16 C      -9.314768     3.110413    -0.369639 C          1 UNL1 0.000
    17 C      -8.371777     2.082754    -0.283583 C          1 UNL1 0.000
    18 C      -8.451438    -0.997826     0.851140 C          1 UNL1 0.000
    19 C      -9.400735    -2.023583     0.862087 C          1 UNL1 0.000
    20 C      -9.010392    -3.332080     0.614251 C          1 UNL1 0.000
    21 C      -7.664250    -3.620532     0.400690 C          1 UNL1 0.000
    22 C      -2.566576     0.616014     3.017206 C          1 UNL1 0.000
    23 C      -1.889059     0.667402     4.233525 C          1 UNL1 0.000
    24 C      -0.507553     0.673226     4.240690 C          1 UNL1 0.000
    25 C       0.185189     0.623102     3.031378 C          1 UNL1 0.000
    26 C      -0.472106     0.569707     1.773484 C          1 UNL1 0.000
    27 C      -1.885759     0.574401     1.769396 C          1 UNL1 0.000
    28 C       0.241119     0.510939     0.530631 C          1 UNL1 0.000
    29 C      -0.454836     0.469028    -0.721901 C          1 UNL1 0.000
    30 C      -1.868523     0.481277    -0.735823 C          1 UNL1 0.000
    31 C      -2.549428     0.529350     0.512836 C          1 UNL1 0.000
    32 C       0.218899     0.419460    -1.971417 C          1 UNL1 0.000
    33 C      -0.458276     0.389737    -3.190454 C          1 UNL1 0.000
    34 C      -1.839633     0.409407    -3.201430 C          1 UNL1 0.000
    35 C      -2.532540     0.455579    -1.993491 C          1 UNL1 0.000
    36 H      -5.077796     5.011987     0.931895 H          1 UNL1 0.000
    37 H      -3.343976     3.275928     0.928623 H          1 UNL1 0.000
    38 H      -3.317070    -2.229431     0.258547 H          1 UNL1 0.000
    39 H      -5.044062    -3.967928     0.163056 H          1 UNL1 0.000
    40 H      -7.386770     5.710672     0.609284 H          1 UNL1 0.000
    41 H      -9.695758     5.206073    -0.069874 H          1 UNL1 0.000
    42 H     -10.317807     2.897270    -0.729838 H          1 UNL1 0.000
    43 H      -8.658007     1.104398    -0.654913 H          1 UNL1 0.000
    44 H      -8.783490    -0.006844     1.139322 H          1 UNL1 0.000
    45 H     -10.441242    -1.796840     1.079514 H          1 UNL1 0.000
    46 H      -9.744815    -4.132877     0.621503 H          1 UNL1 0.000
    47 H      -7.370581    -4.658614     0.258672 H          1 UNL1 0.000
    48 H      -3.654829     0.609797     3.060302 H          1 UNL1 0.000
    49 H      -2.444872     0.703220     5.166567 H          1 UNL1 0.000
    50 H       0.037336     0.715097     5.179885 H          1 UNL1 0.000
    51 H       1.272495     0.628617     3.088039 H          1 UNL1 0.000
    52 H       1.306786     0.408344    -2.013353 H          1 UNL1 0.000
    53 H       0.098054     0.356360    -4.123292 H          1 UNL1 0.000
    54 H      -2.383694     0.392013    -4.141984 H          1 UNL1 0.000
    55 H      -3.619930     0.475945    -2.051836 H          1 UNL1 0.000
    56 C       1.724077     0.493409     0.543948 C          1 UNL1 0.000
    57 C       2.455507     1.687083     0.484482 C          1 UNL1 0.000
    58 C       3.853473     1.666817     0.509820 C          1 UNL1 0.000
    59 C       4.553843     0.454081     0.595800 C          1 UNL1 0.000
    60 C       3.828480    -0.739834     0.662584 C          1 UNL1 0.000
    61 C       2.427408    -0.718122     0.630999 C          1 UNL1 0.000
    62 C       6.049182     0.516327     0.622065 C          1 UNL1 0.000
    63 C       6.880744    -0.740705     0.574679 C          1 UNL1 0.000
    64 O       6.603045     1.613100     0.691171 O          1 UNL1 0.000
    65 H       1.938024     2.642810     0.421514 H          1 UNL1 0.000
    66 H       4.394340     2.611234     0.464711 H          1 UNL1 0.000
    67 H       4.311733    -1.706787     0.750338 H          1 UNL1 0.000
    68 H       1.879098    -1.657881     0.682774 H          1 UNL1 0.000
    69 H       7.648840    -0.617493    -0.195356 H          1 UNL1 0.000
    70 H       6.316577    -1.635225     0.317538 H          1 UNL1 0.000
    71 H       7.359548    -0.886867     1.546741 H          1 UNL1 0.000
@<TRIPOS>BOND
     1      1      2   2
     2      2      3   1
     3      3      4   2
     4      4      5   1
     5      5      6   2
     6      6      1   1
     7      4      7   1
     8      7      8   1
     9      8      9   2
    10      9     10   1
    11     10     11   2
    12     11     12   1
    13     12     13   2
    14     13      8   1
    15     13      5   1
    16      1     14   1
    17     14     15   2
    18     15     16   1
    19     16     17   2
    20     17      6   1
    21     12     18   1
    22     18     19   2
    23     19     20   1
    24     20     21   2
    25     21     11   1
    26     22     23   2
    27     23     24   1
    28     24     25   2
    29     25     26   1
    30     26     27   2
    31     27     22   1
    32     26     28   1
    33     28     29   2
    34     29     30   1
    35     30     31   2
    36     31     27   1
    37     29     32   1
    38     32     33   2
    39     33     34   1
    40     34     35   2
    41     35     30   1
    42      7     31   1
    43      2     36   1
    44      3     37   1
    45      9     38   1
    46     10     39   1
    47     14     40   1
    48     15     41   1
    49     16     42   1
    50     17     43   1
    51     18     44   1
    52     19     45   1
    53     20     46   1
    54     21     47   1
    55     22     48   1
    56     23     49   1
    57     24     50   1
    58     25     51   1
    59     32     52   1
    60     33     53   1
    61     34     54   1
    62     35     55   1
    63     56     57   2
    64     57     58   1
    65     58     59   2
    66     59     60   1
    67     60     61   2
    68     61     56   1
    69     59     62   1
    70     62     63   1
    71     62     64   2
    72     57     65   1
    73     58     66   1
    74     60     67   1
    75     61     68   1
    76     63     69   1
    77     63     70   1
    78     63     71   1
    79     28     56   1
