# Produced with molli package
@<TRIPOS>MOLECULE
D_4_K
60 66 0 0 0
SMALL
USER_CHARGES

@<TRIPOS>ATOM
     1 C      -5.964079     3.697280     1.619317 C          1 UNL1 0.000
     2 C      -4.624032     4.014858     1.409298 C          1 UNL1 0.000
     3 C      -3.638513     3.032915     1.441586 C          1 UNL1 0.000
     4 C      -4.029652     1.693279     1.600099 C          1 UNL1 0.000
     5 C      -5.369808     1.297207     1.705951 C          1 UNL1 0.000
     6 C      -6.355121     2.346434     1.826321 C          1 UNL1 0.000
     7 N      -3.250137     0.560825     1.726586 N          1 UNL1 0.000
     8 C      -4.041210    -0.565735     1.831286 C          1 UNL1 0.000
     9 C      -3.667769    -1.906218     2.021692 C          1 UNL1 0.000
    10 C      -4.661753    -2.880605     2.019651 C          1 UNL1 0.000
    11 C      -5.987410    -2.556604     1.738526 C          1 UNL1 0.000
    12 C      -6.356809    -1.205905     1.495846 C          1 UNL1 0.000
    13 C      -5.372497    -0.162177     1.659459 C          1 UNL1 0.000
    14 C      -6.924812     4.720881     1.665768 C          1 UNL1 0.000
    15 C      -8.256910     4.441375     1.965009 C          1 UNL1 0.000
    16 C      -8.636945     3.138888     2.258719 C          1 UNL1 0.000
    17 C      -7.694116     2.108753     2.208940 C          1 UNL1 0.000
    18 C      -7.671149    -0.962582     1.038802 C          1 UNL1 0.000
    19 C      -8.618403    -1.986023     0.951694 C          1 UNL1 0.000
    20 C      -8.265750    -3.287063     1.283869 C          1 UNL1 0.000
    21 C      -6.953559    -3.572998     1.656647 C          1 UNL1 0.000
    22 C      -1.838922     0.555606     1.734560 C          1 UNL1 0.000
    23 C      -1.164700     0.592304     2.955813 C          1 UNL1 0.000
    24 C       0.224762     0.601433     2.939147 C          1 UNL1 0.000
    25 C       0.929774     0.597196     1.733471 C          1 UNL1 0.000
    26 C       0.249877     0.553876     0.505577 C          1 UNL1 0.000
    27 C      -1.152109     0.536913     0.513656 C          1 UNL1 0.000
    28 O       0.922761     0.704326     4.110374 O          1 UNL1 0.000
    29 C       1.208258    -0.592406     4.634456 C          1 UNL1 0.000
    30 H      -4.317789     5.050612     1.275066 H          1 UNL1 0.000
    31 H      -2.591215     3.308442     1.350987 H          1 UNL1 0.000
    32 H      -2.628624    -2.187284     2.168456 H          1 UNL1 0.000
    33 H      -4.371460    -3.916584     2.183959 H          1 UNL1 0.000
    34 H      -6.637353     5.754958     1.486892 H          1 UNL1 0.000
    35 H      -8.986904     5.245444     2.002569 H          1 UNL1 0.000
    36 H      -9.663300     2.921104     2.542466 H          1 UNL1 0.000
    37 H      -8.011365     1.121816     2.528352 H          1 UNL1 0.000
    38 H      -7.961803     0.023092     0.690631 H          1 UNL1 0.000
    39 H      -9.626167    -1.764312     0.610142 H          1 UNL1 0.000
    40 H      -9.000031    -4.085554     1.219554 H          1 UNL1 0.000
    41 H      -6.685305    -4.606585     1.865472 H          1 UNL1 0.000
    42 H      -1.703029     0.633459     3.898322 H          1 UNL1 0.000
    43 H       2.016725     0.639097     1.755450 H          1 UNL1 0.000
    44 H      -1.703363     0.507034    -0.424904 H          1 UNL1 0.000
    45 H       2.038407    -0.492291     5.340249 H          1 UNL1 0.000
    46 H       1.512630    -1.302291     3.856268 H          1 UNL1 0.000
    47 H       0.338879    -0.976582     5.177273 H          1 UNL1 0.000
    48 C       1.001330     0.537334    -0.751958 C          1 UNL1 0.000
    49 C       1.133155     1.708504    -1.520836 C          1 UNL1 0.000
    50 C       1.879833     1.708497    -2.700636 C          1 UNL1 0.000
    51 C       2.489139     0.520175    -3.103702 C          1 UNL1 0.000
    52 C       2.373158    -0.661712    -2.372225 C          1 UNL1 0.000
    53 C       1.625944    -0.644728    -1.193171 C          1 UNL1 0.000
    54 N       3.277761     0.515836    -4.314609 N          1 UNL1 0.000
    55 O       4.482883     0.770504    -4.198228 O          1 UNL1 0.000
    56 O       2.684548     0.256042    -5.368684 O          1 UNL1 0.000
    57 H       0.662062     2.632454    -1.188256 H          1 UNL1 0.000
    58 H       1.984852     2.620872    -3.281819 H          1 UNL1 0.000
    59 H       2.854535    -1.578434    -2.702615 H          1 UNL1 0.000
    60 H       1.530824    -1.559647    -0.610067 H          1 UNL1 0.000
@<TRIPOS>BOND
     1      1      2   2
     2      2      3   1
     3      3      4   2
     4      4      5   1
     5      5      6   2
     6      6      1   1
     7      4      7   1
     8      7      8   1
     9      8      9   2
    10      9     10   1
    11     10     11   2
    12     11     12   1
    13     12     13   2
    14     13      8   1
    15     13      5   1
    16      1     14   1
    17     14     15   2
    18     15     16   1
    19     16     17   2
    20     17      6   1
    21     12     18   1
    22     18     19   2
    23     19     20   1
    24     20     21   2
    25     21     11   1
    26     22     23   2
    27     23     24   1
    28     24     25   2
    29     25     26   1
    30     26     27   2
    31     27     22   1
    32     28     29   1
    33     24     28   1
    34      7     22   1
    35      2     30   1
    36      3     31   1
    37      9     32   1
    38     10     33   1
    39     14     34   1
    40     15     35   1
    41     16     36   1
    42     17     37   1
    43     18     38   1
    44     19     39   1
    45     20     40   1
    46     21     41   1
    47     23     42   1
    48     25     43   1
    49     27     44   1
    50     29     45   1
    51     29     46   1
    52     29     47   1
    53     48     49   2
    54     49     50   1
    55     50     51   2
    56     51     52   1
    57     52     53   2
    58     53     48   1
    59     54     55   2
    60     54     56   1
    61     51     54   1
    62     49     57   1
    63     50     58   1
    64     52     59   1
    65     53     60   1
    66     26     48   1
