# Produced with molli package
@<TRIPOS>MOLECULE
D_4_P
62 68 0 0 0
SMALL
USER_CHARGES

@<TRIPOS>ATOM
     1 C      -5.997837     3.596414     1.861719 C          1 UNL1 0.000
     2 C      -4.662367     3.929040     2.078016 C          1 UNL1 0.000
     3 C      -3.663589     2.961342     2.028086 C          1 UNL1 0.000
     4 C      -4.036208     1.618753     1.851847 C          1 UNL1 0.000
     5 C      -5.370673     1.206898     1.733633 C          1 UNL1 0.000
     6 C      -6.368856     2.245706     1.623962 C          1 UNL1 0.000
     7 N      -3.240479     0.498700     1.711336 N          1 UNL1 0.000
     8 C      -4.016742    -0.639293     1.610540 C          1 UNL1 0.000
     9 C      -3.623322    -1.976761     1.439927 C          1 UNL1 0.000
    10 C      -4.603131    -2.965664     1.444044 C          1 UNL1 0.000
    11 C      -5.937702    -2.657191     1.699393 C          1 UNL1 0.000
    12 C      -6.329120    -1.309839     1.923841 C          1 UNL1 0.000
    13 C      -5.355349    -0.252955     1.770151 C          1 UNL1 0.000
    14 C      -6.973983     4.606541     1.842596 C          1 UNL1 0.000
    15 C      -8.302251     4.314218     1.538115 C          1 UNL1 0.000
    16 C      -8.661526     3.015169     1.206700 C          1 UNL1 0.000
    17 C      -7.702721     1.998764     1.228901 C          1 UNL1 0.000
    18 C      -7.655810    -1.083062     2.354075 C          1 UNL1 0.000
    19 C      -8.592172    -2.117852     2.426636 C          1 UNL1 0.000
    20 C      -8.215285    -3.416199     2.113233 C          1 UNL1 0.000
    21 C      -6.891168    -3.686870     1.772557 C          1 UNL1 0.000
    22 C      -1.828472     0.515814     1.699219 C          1 UNL1 0.000
    23 C      -1.140017     0.575783     2.912066 C          1 UNL1 0.000
    24 C       0.249012     0.601459     2.880487 C          1 UNL1 0.000
    25 C       0.940270     0.618128     1.667368 C          1 UNL1 0.000
    26 C       0.247312     0.565086     0.447238 C          1 UNL1 0.000
    27 C      -1.154269     0.503295     0.471163 C          1 UNL1 0.000
    28 O       0.959332     0.686875     4.046072 O          1 UNL1 0.000
    29 C       1.242028    -0.620678     4.546506 C          1 UNL1 0.000
    30 H      -4.370294     4.965641     2.233338 H          1 UNL1 0.000
    31 H      -2.620199     3.249638     2.126103 H          1 UNL1 0.000
    32 H      -2.578504    -2.245398     1.309926 H          1 UNL1 0.000
    33 H      -4.295380    -3.999336     1.298714 H          1 UNL1 0.000
    34 H      -6.702171     5.639212     2.050195 H          1 UNL1 0.000
    35 H      -9.045093     5.107236     1.525690 H          1 UNL1 0.000
    36 H      -9.684353     2.789154     0.916594 H          1 UNL1 0.000
    37 H      -8.002845     1.016355     0.880375 H          1 UNL1 0.000
    38 H      -7.967294    -0.100801     2.692154 H          1 UNL1 0.000
    39 H      -9.610410    -1.906147     2.742607 H          1 UNL1 0.000
    40 H      -8.940268    -4.223897     2.167119 H          1 UNL1 0.000
    41 H      -6.604181    -4.718345     1.579449 H          1 UNL1 0.000
    42 H      -1.667855     0.599509     3.861064 H          1 UNL1 0.000
    43 H       2.026280     0.680771     1.675677 H          1 UNL1 0.000
    44 H      -1.712843     0.466789    -0.462817 H          1 UNL1 0.000
    45 H       2.064874    -0.534393     5.262565 H          1 UNL1 0.000
    46 H       1.556327    -1.312732     3.756087 H          1 UNL1 0.000
    47 H       0.368652    -1.019552     5.072404 H          1 UNL1 0.000
    48 C       0.984581     0.584363    -0.818756 C          1 UNL1 0.000
    49 C       1.094712     1.766706    -1.569162 C          1 UNL1 0.000
    50 C       1.816968     1.788650    -2.765601 C          1 UNL1 0.000
    51 C       2.443123     0.628693    -3.210931 C          1 UNL1 0.000
    52 C       2.326622    -0.560197    -2.496052 C          1 UNL1 0.000
    53 C       1.608047    -0.578485    -1.298810 C          1 UNL1 0.000
    54 O       3.109867     0.640374    -4.404851 O          1 UNL1 0.000
    55 C       4.507342     0.837414    -4.188724 C          1 UNL1 0.000
    56 H       0.617969     2.680681    -1.220357 H          1 UNL1 0.000
    57 H       1.887569     2.704755    -3.344437 H          1 UNL1 0.000
    58 H       2.787693    -1.469498    -2.869547 H          1 UNL1 0.000
    59 H       1.528000    -1.509794    -0.742378 H          1 UNL1 0.000
    60 H       5.020605     0.661642    -5.139046 H          1 UNL1 0.000
    61 H       4.914334     0.134875    -3.452595 H          1 UNL1 0.000
    62 H       4.705265     1.869186    -3.879380 H          1 UNL1 0.000
@<TRIPOS>BOND
     1      1      2   2
     2      2      3   1
     3      3      4   2
     4      4      5   1
     5      5      6   2
     6      6      1   1
     7      4      7   1
     8      7      8   1
     9      8      9   2
    10      9     10   1
    11     10     11   2
    12     11     12   1
    13     12     13   2
    14     13      8   1
    15     13      5   1
    16      1     14   1
    17     14     15   2
    18     15     16   1
    19     16     17   2
    20     17      6   1
    21     12     18   1
    22     18     19   2
    23     19     20   1
    24     20     21   2
    25     21     11   1
    26     22     23   2
    27     23     24   1
    28     24     25   2
    29     25     26   1
    30     26     27   2
    31     27     22   1
    32     28     29   1
    33     24     28   1
    34      7     22   1
    35      2     30   1
    36      3     31   1
    37      9     32   1
    38     10     33   1
    39     14     34   1
    40     15     35   1
    41     16     36   1
    42     17     37   1
    43     18     38   1
    44     19     39   1
    45     20     40   1
    46     21     41   1
    47     23     42   1
    48     25     43   1
    49     27     44   1
    50     29     45   1
    51     29     46   1
    52     29     47   1
    53     48     49   2
    54     49     50   1
    55     50     51   2
    56     51     52   1
    57     52     53   2
    58     53     48   1
    59     54     55   1
    60     51     54   1
    61     49     56   1
    62     50     57   1
    63     52     58   1
    64     53     59   1
    65     55     60   1
    66     55     61   1
    67     55     62   1
    68     26     48   1
