# Produced with molli package
@<TRIPOS>MOLECULE
D_4_Q
56 62 0 0 0
SMALL
USER_CHARGES

@<TRIPOS>ATOM
     1 C      -6.054658     3.561044     1.740107 C          1 UNL1 0.000
     2 C      -4.718882     3.863719     1.484685 C          1 UNL1 0.000
     3 C      -3.739083     2.876743     1.529242 C          1 UNL1 0.000
     4 C      -4.132560     1.546183     1.745604 C          1 UNL1 0.000
     5 C      -5.471427     1.161659     1.900843 C          1 UNL1 0.000
     6 C      -6.447658     2.222109     2.006225 C          1 UNL1 0.000
     7 N      -3.354407     0.415552     1.902677 N          1 UNL1 0.000
     8 C      -4.147482    -0.702887     2.061073 C          1 UNL1 0.000
     9 C      -3.773492    -2.039682     2.273491 C          1 UNL1 0.000
    10 C      -4.768796    -3.011739     2.310549 C          1 UNL1 0.000
    11 C      -6.099479    -2.689738     2.052379 C          1 UNL1 0.000
    12 C      -6.472301    -1.343220     1.791904 C          1 UNL1 0.000
    13 C      -5.480972    -0.298488     1.904634 C          1 UNL1 0.000
    14 C      -7.006400     4.594119     1.772738 C          1 UNL1 0.000
    15 C      -8.332179     4.335011     2.115826 C          1 UNL1 0.000
    16 C      -8.712664     3.047296     2.466275 C          1 UNL1 0.000
    17 C      -7.778487     2.007972     2.430706 C          1 UNL1 0.000
    18 C      -7.797417    -1.107069     1.362594 C          1 UNL1 0.000
    19 C      -8.747071    -2.131296     1.315753 C          1 UNL1 0.000
    20 C      -8.387090    -3.426963     1.660002 C          1 UNL1 0.000
    21 C      -7.067067    -3.707266     2.008226 C          1 UNL1 0.000
    22 C      -1.942897     0.410893     1.892176 C          1 UNL1 0.000
    23 C      -1.250916     0.405784     3.103630 C          1 UNL1 0.000
    24 C       0.138353     0.455804     3.068107 C          1 UNL1 0.000
    25 C       0.823787     0.538682     1.853858 C          1 UNL1 0.000
    26 C       0.128967     0.523186     0.632176 C          1 UNL1 0.000
    27 C      -1.272617     0.457381     0.663745 C          1 UNL1 0.000
    28 O       0.874788     0.500127     4.220121 O          1 UNL1 0.000
    29 C       0.913059    -0.785630     4.839915 C          1 UNL1 0.000
    30 H      -4.410195     4.891103     1.304742 H          1 UNL1 0.000
    31 H      -2.693072     3.143673     1.404066 H          1 UNL1 0.000
    32 H      -2.731254    -2.321824     2.395609 H          1 UNL1 0.000
    33 H      -4.475638    -4.045297     2.483904 H          1 UNL1 0.000
    34 H      -6.716662     5.618096     1.548753 H          1 UNL1 0.000
    35 H      -9.055331     5.145870     2.142166 H          1 UNL1 0.000
    36 H      -9.733059     2.847729     2.783574 H          1 UNL1 0.000
    37 H      -8.093699     1.035934     2.793493 H          1 UNL1 0.000
    38 H      -8.096089    -0.128421     1.002626 H          1 UNL1 0.000
    39 H      -9.762340    -1.914608     0.993790 H          1 UNL1 0.000
    40 H      -9.122089    -4.226557     1.623683 H          1 UNL1 0.000
    41 H      -6.793567    -4.737484     2.226033 H          1 UNL1 0.000
    42 H      -1.778537     0.393595     4.052914 H          1 UNL1 0.000
    43 H       1.910837     0.586482     1.868411 H          1 UNL1 0.000
    44 H      -1.834004     0.441197    -0.269942 H          1 UNL1 0.000
    45 H       1.703641    -0.768040     5.596193 H          1 UNL1 0.000
    46 H       1.154078    -1.576352     4.119669 H          1 UNL1 0.000
    47 H      -0.035264    -1.001605     5.342106 H          1 UNL1 0.000
    48 C       0.848314     0.558983    -0.641195 C          1 UNL1 0.000
    49 N       0.665420    -0.506885    -1.462502 N          1 UNL1 0.000
    50 C       1.363809    -0.486437    -2.621387 C          1 UNL1 0.000
    51 C       2.203423     0.558562    -2.966643 C          1 UNL1 0.000
    52 N       2.386261     1.633043    -2.168360 N          1 UNL1 0.000
    53 C       1.693588     1.606567    -1.002362 C          1 UNL1 0.000
    54 H       1.231902    -1.345099    -3.269795 H          1 UNL1 0.000
    55 H       2.755253     0.558235    -3.899601 H          1 UNL1 0.000
    56 H       1.834853     2.468596    -0.358697 H          1 UNL1 0.000
@<TRIPOS>BOND
     1      1      2   2
     2      2      3   1
     3      3      4   2
     4      4      5   1
     5      5      6   2
     6      6      1   1
     7      4      7   1
     8      7      8   1
     9      8      9   2
    10      9     10   1
    11     10     11   2
    12     11     12   1
    13     12     13   2
    14     13      8   1
    15     13      5   1
    16      1     14   1
    17     14     15   2
    18     15     16   1
    19     16     17   2
    20     17      6   1
    21     12     18   1
    22     18     19   2
    23     19     20   1
    24     20     21   2
    25     21     11   1
    26     22     23   2
    27     23     24   1
    28     24     25   2
    29     25     26   1
    30     26     27   2
    31     27     22   1
    32     28     29   1
    33     24     28   1
    34      7     22   1
    35      2     30   1
    36      3     31   1
    37      9     32   1
    38     10     33   1
    39     14     34   1
    40     15     35   1
    41     16     36   1
    42     17     37   1
    43     18     38   1
    44     19     39   1
    45     20     40   1
    46     21     41   1
    47     23     42   1
    48     25     43   1
    49     27     44   1
    50     29     45   1
    51     29     46   1
    52     29     47   1
    53     48     49   2
    54     49     50   1
    55     50     51   2
    56     51     52   1
    57     52     53   2
    58     53     48   1
    59     50     54   1
    60     51     55   1
    61     53     56   1
    62     26     48   1
