# Produced with molli package
@<TRIPOS>MOLECULE
D_4_T
61 67 0 0 0
SMALL
USER_CHARGES

@<TRIPOS>ATOM
     1 C      -6.031156     3.637978     1.899497 C          1 UNL1 0.000
     2 C      -4.701920     3.947728     2.178282 C          1 UNL1 0.000
     3 C      -3.711228     2.970935     2.136926 C          1 UNL1 0.000
     4 C      -4.090010     1.638490     1.902251 C          1 UNL1 0.000
     5 C      -5.424292     1.246336     1.730295 C          1 UNL1 0.000
     6 C      -6.407865     2.296576     1.617828 C          1 UNL1 0.000
     7 N      -3.302848     0.516575     1.727374 N          1 UNL1 0.000
     8 C      -4.090254    -0.607165     1.564054 C          1 UNL1 0.000
     9 C      -3.710245    -1.943151     1.352227 C          1 UNL1 0.000
    10 C      -4.699389    -2.922000     1.330521 C          1 UNL1 0.000
    11 C      -6.029996    -2.608163     1.597347 C          1 UNL1 0.000
    12 C      -6.410233    -1.261112     1.847150 C          1 UNL1 0.000
    13 C      -5.425198    -0.212457     1.726366 C          1 UNL1 0.000
    14 C      -6.994087     4.659329     1.856806 C          1 UNL1 0.000
    15 C      -8.310536     4.389502     1.487260 C          1 UNL1 0.000
    16 C      -8.672057     3.099478     1.121666 C          1 UNL1 0.000
    17 C      -7.728216     2.070456     1.169598 C          1 UNL1 0.000
    18 C      -7.734972    -1.028063     2.278865 C          1 UNL1 0.000
    19 C      -8.677137    -2.057679     2.344898 C          1 UNL1 0.000
    20 C      -8.309604    -3.355824     2.016603 C          1 UNL1 0.000
    21 C      -6.990342    -3.630917     1.661687 C          1 UNL1 0.000
    22 C      -1.890712     0.512767     1.741539 C          1 UNL1 0.000
    23 C      -1.223428     0.627687     2.962157 C          1 UNL1 0.000
    24 C       0.165376     0.596180     2.960245 C          1 UNL1 0.000
    25 C       0.879598     0.522817     1.762657 C          1 UNL1 0.000
    26 C       0.208351     0.426365     0.532869 C          1 UNL1 0.000
    27 C      -1.193858     0.401362     0.531301 C          1 UNL1 0.000
    28 O       0.841535     0.709956     4.143812 O          1 UNL1 0.000
    29 C       1.215755    -0.584230     4.619851 C          1 UNL1 0.000
    30 H      -4.404916     4.976858     2.372383 H          1 UNL1 0.000
    31 H      -2.669082     3.246073     2.276049 H          1 UNL1 0.000
    32 H      -2.667625    -2.219807     1.222049 H          1 UNL1 0.000
    33 H      -4.400599    -3.955020     1.161303 H          1 UNL1 0.000
    34 H      -6.719151     5.685460     2.093062 H          1 UNL1 0.000
    35 H      -9.041664     5.192558     1.452037 H          1 UNL1 0.000
    36 H      -9.683924     2.891851     0.783790 H          1 UNL1 0.000
    37 H      -8.026240     1.095270     0.797916 H          1 UNL1 0.000
    38 H      -8.039425    -0.045891     2.625205 H          1 UNL1 0.000
    39 H      -9.692065    -1.843693     2.669406 H          1 UNL1 0.000
    40 H      -9.038591    -4.159835     2.069450 H          1 UNL1 0.000
    41 H      -6.711209    -4.662321     1.455025 H          1 UNL1 0.000
    42 H      -1.766999     0.718050     3.898266 H          1 UNL1 0.000
    43 H       1.966742     0.554788     1.787639 H          1 UNL1 0.000
    44 H      -1.734638     0.327818    -0.410863 H          1 UNL1 0.000
    45 H       1.937838    -0.447888     5.430378 H          1 UNL1 0.000
    46 H       1.694506    -1.191718     3.842918 H          1 UNL1 0.000
    47 H       0.341956    -1.107184     5.022820 H          1 UNL1 0.000
    48 C       0.970491     0.383248    -0.717012 C          1 UNL1 0.000
    49 C       1.124533     1.537323    -1.498410 C          1 UNL1 0.000
    50 C       1.892116     1.514838    -2.666550 C          1 UNL1 0.000
    51 C       2.522345     0.335820    -3.076342 C          1 UNL1 0.000
    52 C       2.357792    -0.823640    -2.310209 C          1 UNL1 0.000
    53 C       1.592514    -0.798678    -1.140574 C          1 UNL1 0.000
    54 C       3.352188     0.298502    -4.325192 C          1 UNL1 0.000
    55 H       0.657223     2.470560    -1.189887 H          1 UNL1 0.000
    56 H       1.999778     2.428694    -3.246419 H          1 UNL1 0.000
    57 H       2.831609    -1.753725    -2.616031 H          1 UNL1 0.000
    58 H       1.487700    -1.709827    -0.555694 H          1 UNL1 0.000
    59 H       2.863739    -0.321262    -5.083479 H          1 UNL1 0.000
    60 H       4.343987    -0.111851    -4.108321 H          1 UNL1 0.000
    61 H       3.493910     1.300843    -4.742726 H          1 UNL1 0.000
@<TRIPOS>BOND
     1      1      2   2
     2      2      3   1
     3      3      4   2
     4      4      5   1
     5      5      6   2
     6      6      1   1
     7      4      7   1
     8      7      8   1
     9      8      9   2
    10      9     10   1
    11     10     11   2
    12     11     12   1
    13     12     13   2
    14     13      8   1
    15     13      5   1
    16      1     14   1
    17     14     15   2
    18     15     16   1
    19     16     17   2
    20     17      6   1
    21     12     18   1
    22     18     19   2
    23     19     20   1
    24     20     21   2
    25     21     11   1
    26     22     23   2
    27     23     24   1
    28     24     25   2
    29     25     26   1
    30     26     27   2
    31     27     22   1
    32     28     29   1
    33     24     28   1
    34      7     22   1
    35      2     30   1
    36      3     31   1
    37      9     32   1
    38     10     33   1
    39     14     34   1
    40     15     35   1
    41     16     36   1
    42     17     37   1
    43     18     38   1
    44     19     39   1
    45     20     40   1
    46     21     41   1
    47     23     42   1
    48     25     43   1
    49     27     44   1
    50     29     45   1
    51     29     46   1
    52     29     47   1
    53     48     49   2
    54     49     50   1
    55     50     51   2
    56     51     52   1
    57     52     53   2
    58     53     48   1
    59     51     54   1
    60     49     55   1
    61     50     56   1
    62     52     57   1
    63     53     58   1
    64     54     59   1
    65     54     60   1
    66     54     61   1
    67     26     48   1
