# Produced with molli package
@<TRIPOS>MOLECULE
D_4_N
55 61 0 0 0
SMALL
USER_CHARGES

@<TRIPOS>ATOM
     1 C      -6.007407     3.626046     1.509296 C          1 UNL1 0.000
     2 C      -4.670795     3.921633     1.249214 C          1 UNL1 0.000
     3 C      -3.694982     2.930410     1.290469 C          1 UNL1 0.000
     4 C      -4.096403     1.602444     1.508714 C          1 UNL1 0.000
     5 C      -5.437064     1.224372     1.656937 C          1 UNL1 0.000
     6 C      -6.407041     2.286812     1.767066 C          1 UNL1 0.000
     7 N      -3.327687     0.469691     1.683796 N          1 UNL1 0.000
     8 C      -4.127648    -0.644073     1.842857 C          1 UNL1 0.000
     9 C      -3.766302    -1.979332     2.086843 C          1 UNL1 0.000
    10 C      -4.769128    -2.944180     2.120544 C          1 UNL1 0.000
    11 C      -6.091940    -2.617603     1.827791 C          1 UNL1 0.000
    12 C      -6.449596    -1.272249     1.542661 C          1 UNL1 0.000
    13 C      -5.454938    -0.234249     1.661595 C          1 UNL1 0.000
    14 C      -6.954473     4.661724     1.559611 C          1 UNL1 0.000
    15 C      -8.278116     4.405579     1.913343 C          1 UNL1 0.000
    16 C      -8.663236     3.115443     2.252532 C          1 UNL1 0.000
    17 C      -7.735474     2.072412     2.196336 C          1 UNL1 0.000
    18 C      -7.762969    -1.027165     1.084866 C          1 UNL1 0.000
    19 C      -8.718591    -2.044543     1.026969 C          1 UNL1 0.000
    20 C      -8.376488    -3.339383     1.393631 C          1 UNL1 0.000
    21 C      -7.067173    -3.627020     1.775917 C          1 UNL1 0.000
    22 C      -1.920023     0.461997     1.746638 C          1 UNL1 0.000
    23 C      -1.303022     0.472648     2.997190 C          1 UNL1 0.000
    24 C       0.086218     0.462651     3.060552 C          1 UNL1 0.000
    25 C       0.852403     0.478777     1.891238 C          1 UNL1 0.000
    26 C       0.218063     0.463056     0.639731 C          1 UNL1 0.000
    27 C      -1.178924     0.456917     0.563058 C          1 UNL1 0.000
    28 O       0.638973     0.496175     4.310296 O          1 UNL1 0.000
    29 C       1.544060    -0.581963     4.538426 C          1 UNL1 0.000
    30 H      -4.357071     4.948602     1.072908 H          1 UNL1 0.000
    31 H      -2.647135     3.191240     1.167782 H          1 UNL1 0.000
    32 H      -2.729400    -2.264729     2.242167 H          1 UNL1 0.000
    33 H      -4.487900    -3.976048     2.321594 H          1 UNL1 0.000
    34 H      -6.661392     5.687099     1.344594 H          1 UNL1 0.000
    35 H      -8.996595     5.219595     1.957302 H          1 UNL1 0.000
    36 H      -9.681219     2.917768     2.577939 H          1 UNL1 0.000
    37 H      -8.052507     1.096604     2.548834 H          1 UNL1 0.000
    38 H      -8.045434    -0.047339     0.713962 H          1 UNL1 0.000
    39 H      -9.724704    -1.823380     0.680389 H          1 UNL1 0.000
    40 H      -9.117423    -4.133106     1.350182 H          1 UNL1 0.000
    41 H      -6.808076    -4.656404     2.014208 H          1 UNL1 0.000
    42 H      -1.887871     0.492028     3.913363 H          1 UNL1 0.000
    43 H       1.936942     0.509959     1.950858 H          1 UNL1 0.000
    44 H      -1.679445     0.450909    -0.403093 H          1 UNL1 0.000
    45 H       2.570289    -0.245518     4.365643 H          1 UNL1 0.000
    46 H       1.323745    -1.463640     3.924862 H          1 UNL1 0.000
    47 H       1.449480    -0.876409     5.588276 H          1 UNL1 0.000
    48 C       1.008142     0.465442    -0.578513 C          1 UNL1 0.000
    49 C       1.112629    -0.662716    -1.367938 C          1 UNL1 0.000
    50 S       2.089037    -0.399843    -2.749833 S          1 UNL1 0.000
    51 C       2.374788     1.227139    -2.305671 C          1 UNL1 0.000
    52 C       1.746543     1.559744    -1.125131 C          1 UNL1 0.000
    53 H       0.667006    -1.635163    -1.205739 H          1 UNL1 0.000
    54 H       2.987855     1.860762    -2.931874 H          1 UNL1 0.000
    55 H       1.803626     2.546468    -0.681522 H          1 UNL1 0.000
@<TRIPOS>BOND
     1      1      2   2
     2      2      3   1
     3      3      4   2
     4      4      5   1
     5      5      6   2
     6      6      1   1
     7      4      7   1
     8      7      8   1
     9      8      9   2
    10      9     10   1
    11     10     11   2
    12     11     12   1
    13     12     13   2
    14     13      8   1
    15     13      5   1
    16      1     14   1
    17     14     15   2
    18     15     16   1
    19     16     17   2
    20     17      6   1
    21     12     18   1
    22     18     19   2
    23     19     20   1
    24     20     21   2
    25     21     11   1
    26     22     23   2
    27     23     24   1
    28     24     25   2
    29     25     26   1
    30     26     27   2
    31     27     22   1
    32     28     29   1
    33     24     28   1
    34      7     22   1
    35      2     30   1
    36      3     31   1
    37      9     32   1
    38     10     33   1
    39     14     34   1
    40     15     35   1
    41     16     36   1
    42     17     37   1
    43     18     38   1
    44     19     39   1
    45     20     40   1
    46     21     41   1
    47     23     42   1
    48     25     43   1
    49     27     44   1
    50     29     45   1
    51     29     46   1
    52     29     47   1
    53     48     49   2
    54     49     50   1
    55     50     51   1
    56     51     52   2
    57     52     48   1
    58     49     53   1
    59     51     54   1
    60     52     55   1
    61     26     48   1
