# Produced with molli package
@<TRIPOS>MOLECULE
D_4_O
57 63 0 0 0
SMALL
USER_CHARGES

@<TRIPOS>ATOM
     1 C      -5.990859     3.661527     1.597106 C          1 UNL1 0.000
     2 C      -4.657052     3.955117     1.321469 C          1 UNL1 0.000
     3 C      -3.685451     2.958700     1.329700 C          1 UNL1 0.000
     4 C      -4.089205     1.628111     1.528215 C          1 UNL1 0.000
     5 C      -5.429575     1.254389     1.692338 C          1 UNL1 0.000
     6 C      -6.392362     2.319870     1.839157 C          1 UNL1 0.000
     7 N      -3.322398     0.487845     1.667047 N          1 UNL1 0.000
     8 C      -4.126756    -0.625103     1.809890 C          1 UNL1 0.000
     9 C      -3.767300    -1.968433     2.006870 C          1 UNL1 0.000
    10 C      -4.774038    -2.929038     2.037811 C          1 UNL1 0.000
    11 C      -6.101976    -2.588356     1.788412 C          1 UNL1 0.000
    12 C      -6.459229    -1.234355     1.546308 C          1 UNL1 0.000
    13 C      -5.455614    -0.204250     1.667121 C          1 UNL1 0.000
    14 C      -6.932578     4.700471     1.677934 C          1 UNL1 0.000
    15 C      -8.252004     4.444964     2.047372 C          1 UNL1 0.000
    16 C      -8.637280     3.151603     2.373580 C          1 UNL1 0.000
    17 C      -7.714744     2.105793     2.287370 C          1 UNL1 0.000
    18 C      -7.782802    -0.973276     1.127712 C          1 UNL1 0.000
    19 C      -8.745565    -1.984150     1.071026 C          1 UNL1 0.000
    20 C      -8.401005    -3.289067     1.396956 C          1 UNL1 0.000
    21 C      -7.083441    -3.591762     1.736478 C          1 UNL1 0.000
    22 C      -1.913113     0.474422     1.719289 C          1 UNL1 0.000
    23 C      -1.285157     0.448440     2.963740 C          1 UNL1 0.000
    24 C       0.103045     0.444798     3.007973 C          1 UNL1 0.000
    25 C       0.855320     0.509723     1.830849 C          1 UNL1 0.000
    26 C       0.223357     0.528914     0.573116 C          1 UNL1 0.000
    27 C      -1.180041     0.505729     0.528811 C          1 UNL1 0.000
    28 O       0.693832     0.449917     4.239935 O          1 UNL1 0.000
    29 C       1.496429    -0.709196     4.464132 C          1 UNL1 0.000
    30 H      -4.341256     4.983546     1.157786 H          1 UNL1 0.000
    31 H      -2.638596     3.216516     1.194100 H          1 UNL1 0.000
    32 H      -2.727761    -2.262979     2.124280 H          1 UNL1 0.000
    33 H      -4.492352    -3.967482     2.200610 H          1 UNL1 0.000
    34 H      -6.638211     5.727747     1.473764 H          1 UNL1 0.000
    35 H      -8.966329     5.261086     2.113807 H          1 UNL1 0.000
    36 H      -9.650988     2.953152     2.711579 H          1 UNL1 0.000
    37 H      -8.030253     1.126326     2.631086 H          1 UNL1 0.000
    38 H      -8.069422     0.015720     0.785843 H          1 UNL1 0.000
    39 H      -9.759166    -1.749774     0.756587 H          1 UNL1 0.000
    40 H      -9.146803    -4.078143     1.353812 H          1 UNL1 0.000
    41 H      -6.822864    -4.627968     1.941412 H          1 UNL1 0.000
    42 H      -1.859889     0.435405     3.885823 H          1 UNL1 0.000
    43 H       1.940771     0.533214     1.891410 H          1 UNL1 0.000
    44 H      -1.689518     0.507896    -0.433858 H          1 UNL1 0.000
    45 H       2.521792    -0.389378     4.670924 H          1 UNL1 0.000
    46 H       1.502055    -1.422710     3.631719 H          1 UNL1 0.000
    47 H       1.109263    -1.222168     5.349975 H          1 UNL1 0.000
    48 C       1.007417     0.560946    -0.665386 C          1 UNL1 0.000
    49 N       0.836668    -0.499282    -1.492991 N          1 UNL1 0.000
    50 C       1.556984    -0.518824    -2.635911 C          1 UNL1 0.000
    51 C       2.438386     0.481193    -3.009023 C          1 UNL1 0.000
    52 C       2.593411     1.568643    -2.158636 C          1 UNL1 0.000
    53 C       1.873028     1.610470    -0.967337 C          1 UNL1 0.000
    54 H       1.401658    -1.391192    -3.264419 H          1 UNL1 0.000
    55 H       2.988617     0.414555    -3.940841 H          1 UNL1 0.000
    56 H       3.268587     2.378502    -2.419657 H          1 UNL1 0.000
    57 H       1.977953     2.454954    -0.293858 H          1 UNL1 0.000
@<TRIPOS>BOND
     1      1      2   2
     2      2      3   1
     3      3      4   2
     4      4      5   1
     5      5      6   2
     6      6      1   1
     7      4      7   1
     8      7      8   1
     9      8      9   2
    10      9     10   1
    11     10     11   2
    12     11     12   1
    13     12     13   2
    14     13      8   1
    15     13      5   1
    16      1     14   1
    17     14     15   2
    18     15     16   1
    19     16     17   2
    20     17      6   1
    21     12     18   1
    22     18     19   2
    23     19     20   1
    24     20     21   2
    25     21     11   1
    26     22     23   2
    27     23     24   1
    28     24     25   2
    29     25     26   1
    30     26     27   2
    31     27     22   1
    32     28     29   1
    33     24     28   1
    34      7     22   1
    35      2     30   1
    36      3     31   1
    37      9     32   1
    38     10     33   1
    39     14     34   1
    40     15     35   1
    41     16     36   1
    42     17     37   1
    43     18     38   1
    44     19     39   1
    45     20     40   1
    46     21     41   1
    47     23     42   1
    48     25     43   1
    49     27     44   1
    50     29     45   1
    51     29     46   1
    52     29     47   1
    53     48     49   2
    54     49     50   1
    55     50     51   2
    56     51     52   1
    57     52     53   2
    58     53     48   1
    59     50     54   1
    60     51     55   1
    61     52     56   1
    62     53     57   1
    63     26     48   1
