# Produced with molli package
@<TRIPOS>MOLECULE
D_4_M
59 65 0 0 0
SMALL
USER_CHARGES

@<TRIPOS>ATOM
     1 C      -6.064892     3.554808     1.974139 C          1 UNL1 0.000
     2 C      -4.721604     3.884634     2.135900 C          1 UNL1 0.000
     3 C      -3.726941     2.916335     2.042998 C          1 UNL1 0.000
     4 C      -4.107091     1.574239     1.875288 C          1 UNL1 0.000
     5 C      -5.445136     1.165783     1.785434 C          1 UNL1 0.000
     6 C      -6.445199     2.208354     1.725498 C          1 UNL1 0.000
     7 N      -3.315580     0.453013     1.722026 N          1 UNL1 0.000
     8 C      -4.094913    -0.682770     1.619883 C          1 UNL1 0.000
     9 C      -3.702923    -2.020472     1.444696 C          1 UNL1 0.000
    10 C      -4.685111    -3.006168     1.423328 C          1 UNL1 0.000
    11 C      -6.021670    -2.697248     1.664476 C          1 UNL1 0.000
    12 C      -6.408045    -1.355232     1.925843 C          1 UNL1 0.000
    13 C      -5.432117    -0.296285     1.792100 C          1 UNL1 0.000
    14 C      -7.042127     4.562837     2.025360 C          1 UNL1 0.000
    15 C      -8.384206     4.274285     1.786053 C          1 UNL1 0.000
    16 C      -8.756444     2.984136     1.436317 C          1 UNL1 0.000
    17 C      -7.794252     1.972681     1.379733 C          1 UNL1 0.000
    18 C      -7.734857    -1.140001     2.360440 C          1 UNL1 0.000
    19 C      -8.681684    -2.167357     2.374369 C          1 UNL1 0.000
    20 C      -8.311914    -3.453393     2.007844 C          1 UNL1 0.000
    21 C      -6.983381    -3.721621     1.683831 C          1 UNL1 0.000
    22 C      -1.903291     0.459507     1.735567 C          1 UNL1 0.000
    23 C      -1.244511     0.549130     2.961518 C          1 UNL1 0.000
    24 C       0.144080     0.532385     2.971591 C          1 UNL1 0.000
    25 C       0.869465     0.491970     1.778080 C          1 UNL1 0.000
    26 C       0.205815     0.427428     0.540053 C          1 UNL1 0.000
    27 C      -1.197996     0.391603     0.527754 C          1 UNL1 0.000
    28 O       0.778849     0.631519     4.177144 O          1 UNL1 0.000
    29 C       1.398640    -0.601216     4.545848 C          1 UNL1 0.000
    30 H      -4.422773     4.919911     2.288952 H          1 UNL1 0.000
    31 H      -2.680563     3.203181     2.107513 H          1 UNL1 0.000
    32 H      -2.657562    -2.291299     1.324357 H          1 UNL1 0.000
    33 H      -4.378973    -4.038680     1.266061 H          1 UNL1 0.000
    34 H      -6.761909     5.590989     2.244917 H          1 UNL1 0.000
    35 H      -9.129352     5.063375     1.837700 H          1 UNL1 0.000
    36 H      -9.792361     2.760895     1.194918 H          1 UNL1 0.000
    37 H      -8.108562     1.002341     1.011641 H          1 UNL1 0.000
    38 H      -8.040111    -0.173130     2.744890 H          1 UNL1 0.000
    39 H      -9.702708    -1.959391     2.683567 H          1 UNL1 0.000
    40 H      -9.045811    -4.254653     2.009571 H          1 UNL1 0.000
    41 H      -6.700960    -4.746908     1.454088 H          1 UNL1 0.000
    42 H      -1.795165     0.611329     3.896229 H          1 UNL1 0.000
    43 H       1.955806     0.535091     1.811985 H          1 UNL1 0.000
    44 H      -1.734156     0.340734    -0.418464 H          1 UNL1 0.000
    45 H       2.479238    -0.444907     4.612625 H          1 UNL1 0.000
    46 H       1.195777    -1.429003     3.855278 H          1 UNL1 0.000
    47 H       1.027969    -0.883530     5.536117 H          1 UNL1 0.000
    48 C       0.971916     0.434787    -0.709958 C          1 UNL1 0.000
    49 C       1.118425     1.620217    -1.447841 C          1 UNL1 0.000
    50 C       1.871308     1.643660    -2.626501 C          1 UNL1 0.000
    51 C       2.487204     0.477055    -3.087209 C          1 UNL1 0.000
    52 C       2.345224    -0.710862    -2.363723 C          1 UNL1 0.000
    53 C       1.594104    -0.729891    -1.183046 C          1 UNL1 0.000
    54 C       3.263372     0.499709    -4.292314 C          1 UNL1 0.000
    55 N       3.893733     0.517918    -5.267193 N          1 UNL1 0.000
    56 H       0.652469     2.540368    -1.098008 H          1 UNL1 0.000
    57 H       1.974909     2.578144    -3.175232 H          1 UNL1 0.000
    58 H       2.818895    -1.627755    -2.710021 H          1 UNL1 0.000
    59 H       1.496727    -1.662764    -0.630584 H          1 UNL1 0.000
@<TRIPOS>BOND
     1      1      2   2
     2      2      3   1
     3      3      4   2
     4      4      5   1
     5      5      6   2
     6      6      1   1
     7      4      7   1
     8      7      8   1
     9      8      9   2
    10      9     10   1
    11     10     11   2
    12     11     12   1
    13     12     13   2
    14     13      8   1
    15     13      5   1
    16      1     14   1
    17     14     15   2
    18     15     16   1
    19     16     17   2
    20     17      6   1
    21     12     18   1
    22     18     19   2
    23     19     20   1
    24     20     21   2
    25     21     11   1
    26     22     23   2
    27     23     24   1
    28     24     25   2
    29     25     26   1
    30     26     27   2
    31     27     22   1
    32     28     29   1
    33     24     28   1
    34      7     22   1
    35      2     30   1
    36      3     31   1
    37      9     32   1
    38     10     33   1
    39     14     34   1
    40     15     35   1
    41     16     36   1
    42     17     37   1
    43     18     38   1
    44     19     39   1
    45     20     40   1
    46     21     41   1
    47     23     42   1
    48     25     43   1
    49     27     44   1
    50     29     45   1
    51     29     46   1
    52     29     47   1
    53     48     49   2
    54     49     50   1
    55     50     51   2
    56     51     52   1
    57     52     53   2
    58     53     48   1
    59     54     55   3
    60     51     54   1
    61     49     56   1
    62     50     57   1
    63     52     58   1
    64     53     59   1
    65     26     48   1
