# Produced with molli package
@<TRIPOS>MOLECULE
D_4_R
59 65 0 0 0
SMALL
USER_CHARGES

@<TRIPOS>ATOM
     1 C      -5.967959     3.617665     1.668482 C          1 UNL1 0.000
     2 C      -4.631862     3.922434     1.418484 C          1 UNL1 0.000
     3 C      -3.655216     2.931085     1.423714 C          1 UNL1 0.000
     4 C      -4.054048     1.594960     1.594203 C          1 UNL1 0.000
     5 C      -5.394444     1.212142     1.733794 C          1 UNL1 0.000
     6 C      -6.365862     2.270158     1.883570 C          1 UNL1 0.000
     7 N      -3.281823     0.455046     1.708291 N          1 UNL1 0.000
     8 C      -4.081491    -0.663602     1.828327 C          1 UNL1 0.000
     9 C      -3.719205    -2.008095     2.010084 C          1 UNL1 0.000
    10 C      -4.724248    -2.971727     2.023170 C          1 UNL1 0.000
    11 C      -6.051561    -2.633130     1.765966 C          1 UNL1 0.000
    12 C      -6.410527    -1.277815     1.535911 C          1 UNL1 0.000
    13 C      -5.411967    -0.246136     1.683300 C          1 UNL1 0.000
    14 C      -6.916438     4.650536     1.748275 C          1 UNL1 0.000
    15 C      -8.240856     4.383196     2.089865 C          1 UNL1 0.000
    16 C      -8.624836     3.083197     2.389977 C          1 UNL1 0.000
    17 C      -7.695014     2.043541     2.305346 C          1 UNL1 0.000
    18 C      -7.730003    -1.016222     1.104130 C          1 UNL1 0.000
    19 C      -8.689542    -2.028639     1.025709 C          1 UNL1 0.000
    20 C      -8.345318    -3.335641     1.343297 C          1 UNL1 0.000
    21 C      -7.030481    -3.638175     1.693960 C          1 UNL1 0.000
    22 C      -1.870333     0.448093     1.723208 C          1 UNL1 0.000
    23 C      -1.204251     0.495638     2.949050 C          1 UNL1 0.000
    24 C       0.184804     0.554693     2.942120 C          1 UNL1 0.000
    25 C       0.893566     0.604459     1.740701 C          1 UNL1 0.000
    26 C       0.225306     0.543214     0.505854 C          1 UNL1 0.000
    27 C      -1.175281     0.457886     0.507199 C          1 UNL1 0.000
    28 O       0.901680     0.639674     4.103776 O          1 UNL1 0.000
    29 C       0.896801    -0.611711     4.791415 C          1 UNL1 0.000
    30 H      -4.319807     4.955150     1.274986 H          1 UNL1 0.000
    31 H      -2.608525     3.196930     1.303772 H          1 UNL1 0.000
    32 H      -2.680104    -2.301129     2.133284 H          1 UNL1 0.000
    33 H      -4.441784    -4.011443     2.177477 H          1 UNL1 0.000
    34 H      -6.624364     5.682343     1.563952 H          1 UNL1 0.000
    35 H      -8.960807     5.194546     2.154807 H          1 UNL1 0.000
    36 H      -9.643721     2.874712     2.705809 H          1 UNL1 0.000
    37 H      -8.012362     1.057709     2.628566 H          1 UNL1 0.000
    38 H      -8.015487    -0.024650     0.768392 H          1 UNL1 0.000
    39 H      -9.700050    -1.793860     0.701492 H          1 UNL1 0.000
    40 H      -9.088852    -4.125938     1.284395 H          1 UNL1 0.000
    41 H      -6.770030    -4.675944     1.891548 H          1 UNL1 0.000
    42 H      -1.752884     0.512918     3.886284 H          1 UNL1 0.000
    43 H       1.979245     0.667115     1.774001 H          1 UNL1 0.000
    44 H      -1.715950     0.408630    -0.436910 H          1 UNL1 0.000
    45 H       1.720576    -0.599410     5.511538 H          1 UNL1 0.000
    46 H       1.059755    -1.455044     4.109686 H          1 UNL1 0.000
    47 H      -0.039087    -0.741816     5.343563 H          1 UNL1 0.000
    48 C       0.982296     0.564979    -0.747089 C          1 UNL1 0.000
    49 N       0.924600    -0.570512    -1.489580 N          1 UNL1 0.000
    50 C       1.665425    -0.618082    -2.625092 C          1 UNL1 0.000
    51 C       2.447158     0.438902    -3.059103 C          1 UNL1 0.000
    52 C       2.485635     1.612869    -2.307623 C          1 UNL1 0.000
    53 C       1.744976     1.671140    -1.127473 C          1 UNL1 0.000
    54 N       3.219334     0.311253    -4.281219 N          1 UNL1 0.000
    55 O       3.502803    -0.833276    -4.663058 O          1 UNL1 0.000
    56 O       3.550585     1.354028    -4.859615 O          1 UNL1 0.000
    57 H       1.597237    -1.556044    -3.170964 H          1 UNL1 0.000
    58 H       3.084234     2.466712    -2.614960 H          1 UNL1 0.000
    59 H       1.763776     2.567063    -0.512979 H          1 UNL1 0.000
@<TRIPOS>BOND
     1      1      2   2
     2      2      3   1
     3      3      4   2
     4      4      5   1
     5      5      6   2
     6      6      1   1
     7      4      7   1
     8      7      8   1
     9      8      9   2
    10      9     10   1
    11     10     11   2
    12     11     12   1
    13     12     13   2
    14     13      8   1
    15     13      5   1
    16      1     14   1
    17     14     15   2
    18     15     16   1
    19     16     17   2
    20     17      6   1
    21     12     18   1
    22     18     19   2
    23     19     20   1
    24     20     21   2
    25     21     11   1
    26     22     23   2
    27     23     24   1
    28     24     25   2
    29     25     26   1
    30     26     27   2
    31     27     22   1
    32     28     29   1
    33     24     28   1
    34      7     22   1
    35      2     30   1
    36      3     31   1
    37      9     32   1
    38     10     33   1
    39     14     34   1
    40     15     35   1
    41     16     36   1
    42     17     37   1
    43     18     38   1
    44     19     39   1
    45     20     40   1
    46     21     41   1
    47     23     42   1
    48     25     43   1
    49     27     44   1
    50     29     45   1
    51     29     46   1
    52     29     47   1
    53     48     49   2
    54     49     50   1
    55     50     51   2
    56     51     52   1
    57     52     53   2
    58     53     48   1
    59     54     55   2
    60     54     56   1
    61     51     54   1
    62     50     57   1
    63     52     58   1
    64     53     59   1
    65     26     48   1
