# Produced with molli package
@<TRIPOS>MOLECULE
D_4_L
62 69 0 0 0
SMALL
USER_CHARGES

@<TRIPOS>ATOM
     1 C      -6.024632     3.600548     1.754056 C          1 UNL1 0.000
     2 C      -4.690512     3.919612     1.508985 C          1 UNL1 0.000
     3 C      -3.703006     2.938615     1.517719 C          1 UNL1 0.000
     4 C      -4.088981     1.598816     1.686826 C          1 UNL1 0.000
     5 C      -5.426252     1.201954     1.815687 C          1 UNL1 0.000
     6 C      -6.409160     2.248604     1.963236 C          1 UNL1 0.000
     7 N      -3.307040     0.466682     1.806081 N          1 UNL1 0.000
     8 C      -4.096872    -0.660556     1.915040 C          1 UNL1 0.000
     9 C      -3.723854    -2.001936     2.098713 C          1 UNL1 0.000
    10 C      -4.719477    -2.975438     2.094842 C          1 UNL1 0.000
    11 C      -6.046239    -2.648563     1.819425 C          1 UNL1 0.000
    12 C      -6.415344    -1.295700     1.591924 C          1 UNL1 0.000
    13 C      -5.429215    -0.255475     1.757100 C          1 UNL1 0.000
    14 C      -6.984981     4.622419     1.834552 C          1 UNL1 0.000
    15 C      -8.307389     4.338872     2.171879 C          1 UNL1 0.000
    16 C      -8.678375     3.033428     2.465018 C          1 UNL1 0.000
    17 C      -7.737309     2.004353     2.378227 C          1 UNL1 0.000
    18 C      -7.731048    -1.043080     1.143878 C          1 UNL1 0.000
    19 C      -8.678900    -2.064459     1.044055 C          1 UNL1 0.000
    20 C      -8.326378    -3.370223     1.357925 C          1 UNL1 0.000
    21 C      -7.014169    -3.662519     1.727067 C          1 UNL1 0.000
    22 C      -1.896252     0.466628     1.817706 C          1 UNL1 0.000
    23 C      -1.226617     0.521556     3.040605 C          1 UNL1 0.000
    24 C       0.162311     0.563993     3.027512 C          1 UNL1 0.000
    25 C       0.869612     0.581890     1.823551 C          1 UNL1 0.000
    26 C       0.195999     0.514867     0.592370 C          1 UNL1 0.000
    27 C      -1.205630     0.456751     0.599158 C          1 UNL1 0.000
    28 O       0.861509     0.669460     4.198287 O          1 UNL1 0.000
    29 C       1.076420    -0.624469     4.761866 C          1 UNL1 0.000
    30 H      -4.388370     4.955424     1.366792 H          1 UNL1 0.000
    31 H      -2.658258     3.214762     1.400794 H          1 UNL1 0.000
    32 H      -2.684043    -2.284202     2.238767 H          1 UNL1 0.000
    33 H      -4.429574    -4.012627     2.251395 H          1 UNL1 0.000
    34 H      -6.703543     5.657941     1.654957 H          1 UNL1 0.000
    35 H      -9.036143     5.142154     2.238751 H          1 UNL1 0.000
    36 H      -9.695708     2.812484     2.777247 H          1 UNL1 0.000
    37 H      -8.044491     1.013001     2.694453 H          1 UNL1 0.000
    38 H      -8.021398    -0.051346     0.812568 H          1 UNL1 0.000
    39 H      -9.686764    -1.837197     0.706506 H          1 UNL1 0.000
    40 H      -9.061218    -4.167232     1.282653 H          1 UNL1 0.000
    41 H      -6.746838    -4.698783     1.922765 H          1 UNL1 0.000
    42 H      -1.768699     0.554235     3.981081 H          1 UNL1 0.000
    43 H       1.955747     0.641234     1.848436 H          1 UNL1 0.000
    44 H      -1.753222     0.422715    -0.341387 H          1 UNL1 0.000
    45 H       1.875600    -0.537327     5.504135 H          1 UNL1 0.000
    46 H       1.394311    -1.356658     4.010143 H          1 UNL1 0.000
    47 H       0.171350    -0.971359     5.270684 H          1 UNL1 0.000
    48 C       0.950810     0.514926    -0.666522 C          1 UNL1 0.000
    49 C       0.956555    -0.614546    -1.498051 C          1 UNL1 0.000
    50 C       1.692880    -0.653369    -2.689033 C          1 UNL1 0.000
    51 C       2.427483     0.485944    -3.031053 C          1 UNL1 0.000
    52 C       2.445470     1.633737    -2.240578 C          1 UNL1 0.000
    53 C       1.699551     1.645519    -1.045474 C          1 UNL1 0.000
    54 N       3.233999     0.732092    -4.119545 N          1 UNL1 0.000
    55 C       3.755031     1.996944    -4.046342 C          1 UNL1 0.000
    56 C       3.282617     2.580235    -2.892961 C          1 UNL1 0.000
    57 H       0.388064    -1.498012    -1.211000 H          1 UNL1 0.000
    58 H       1.692130    -1.540102    -3.314191 H          1 UNL1 0.000
    59 H       1.705479     2.534468    -0.419966 H          1 UNL1 0.000
    60 H       3.411536     0.070358    -4.862296 H          1 UNL1 0.000
    61 H       4.414312     2.371264    -4.817754 H          1 UNL1 0.000
    62 H       3.513703     3.580386    -2.550690 H          1 UNL1 0.000
@<TRIPOS>BOND
     1      1      2   2
     2      2      3   1
     3      3      4   2
     4      4      5   1
     5      5      6   2
     6      6      1   1
     7      4      7   1
     8      7      8   1
     9      8      9   2
    10      9     10   1
    11     10     11   2
    12     11     12   1
    13     12     13   2
    14     13      8   1
    15     13      5   1
    16      1     14   1
    17     14     15   2
    18     15     16   1
    19     16     17   2
    20     17      6   1
    21     12     18   1
    22     18     19   2
    23     19     20   1
    24     20     21   2
    25     21     11   1
    26     22     23   2
    27     23     24   1
    28     24     25   2
    29     25     26   1
    30     26     27   2
    31     27     22   1
    32     28     29   1
    33     24     28   1
    34      7     22   1
    35      2     30   1
    36      3     31   1
    37      9     32   1
    38     10     33   1
    39     14     34   1
    40     15     35   1
    41     16     36   1
    42     17     37   1
    43     18     38   1
    44     19     39   1
    45     20     40   1
    46     21     41   1
    47     23     42   1
    48     25     43   1
    49     27     44   1
    50     29     45   1
    51     29     46   1
    52     29     47   1
    53     48     49   2
    54     49     50   1
    55     50     51   2
    56     51     52   1
    57     52     53   2
    58     53     48   1
    59     51     54   1
    60     54     55   1
    61     55     56   2
    62     56     52   1
    63     49     57   1
    64     50     58   1
    65     53     59   1
    66     54     60   1
    67     55     61   1
    68     56     62   1
    69     26     48   1
