# Produced with molli package
@<TRIPOS>MOLECULE
D_4_S
63 69 0 0 0
SMALL
USER_CHARGES

@<TRIPOS>ATOM
     1 C      -6.003910     3.610010     1.956742 C          1 UNL1 0.000
     2 C      -4.668171     3.922216     2.197144 C          1 UNL1 0.000
     3 C      -3.680195     2.943851     2.145514 C          1 UNL1 0.000
     4 C      -4.063833     1.609464     1.931169 C          1 UNL1 0.000
     5 C      -5.400431     1.215639     1.775466 C          1 UNL1 0.000
     6 C      -6.387495     2.268219     1.685430 C          1 UNL1 0.000
     7 N      -3.276581     0.485779     1.771488 N          1 UNL1 0.000
     8 C      -4.061217    -0.635947     1.590737 C          1 UNL1 0.000
     9 C      -3.675448    -1.966651     1.359234 C          1 UNL1 0.000
    10 C      -4.662879    -2.944195     1.289295 C          1 UNL1 0.000
    11 C      -5.998360    -2.636817     1.537641 C          1 UNL1 0.000
    12 C      -6.382229    -1.300204     1.832022 C          1 UNL1 0.000
    13 C      -5.398400    -0.245267     1.748338 C          1 UNL1 0.000
    14 C      -6.966814     4.632872     1.945166 C          1 UNL1 0.000
    15 C      -8.295515     4.363969     1.623057 C          1 UNL1 0.000
    16 C      -8.667852     3.075696     1.265305 C          1 UNL1 0.000
    17 C      -7.721084     2.047663     1.274266 C          1 UNL1 0.000
    18 C      -7.712415    -1.086802     2.256912 C          1 UNL1 0.000
    19 C      -8.658110    -2.115603     2.254824 C          1 UNL1 0.000
    20 C      -8.287792    -3.396677     1.869435 C          1 UNL1 0.000
    21 C      -6.961016    -3.659568     1.534441 C          1 UNL1 0.000
    22 C      -1.864436     0.483734     1.787374 C          1 UNL1 0.000
    23 C      -1.198301     0.561990     3.011294 C          1 UNL1 0.000
    24 C       0.190673     0.550455     3.006343 C          1 UNL1 0.000
    25 C       0.904252     0.534565     1.805938 C          1 UNL1 0.000
    26 C       0.234471     0.470518     0.572582 C          1 UNL1 0.000
    27 C      -1.167539     0.421824     0.573404 C          1 UNL1 0.000
    28 O       0.873174     0.626997     4.189166 O          1 UNL1 0.000
    29 C       1.213834    -0.684461     4.643870 C          1 UNL1 0.000
    30 H      -4.366265     4.952709     2.374842 H          1 UNL1 0.000
    31 H      -2.635461     3.219288     2.263564 H          1 UNL1 0.000
    32 H      -2.630512    -2.239217     1.239433 H          1 UNL1 0.000
    33 H      -4.361001    -3.971380     1.093711 H          1 UNL1 0.000
    34 H      -6.683963     5.658541     2.173176 H          1 UNL1 0.000
    35 H      -9.028182     5.166428     1.617913 H          1 UNL1 0.000
    36 H      -9.691075     2.867684     0.963482 H          1 UNL1 0.000
    37 H      -8.031710     1.077790     0.901546 H          1 UNL1 0.000
    38 H      -8.019550    -0.122934     2.648560 H          1 UNL1 0.000
    39 H      -9.679087    -1.914115     2.568380 H          1 UNL1 0.000
    40 H      -9.020400    -4.199168     1.863242 H          1 UNL1 0.000
    41 H      -6.679509    -4.680514     1.284788 H          1 UNL1 0.000
    42 H      -1.742415     0.613717     3.950034 H          1 UNL1 0.000
    43 H       1.991183     0.569864     1.836059 H          1 UNL1 0.000
    44 H      -1.712000     0.381543    -0.368794 H          1 UNL1 0.000
    45 H       1.974173    -0.582235     5.423990 H          1 UNL1 0.000
    46 H       1.634330    -1.307611     3.845674 H          1 UNL1 0.000
    47 H       0.336523    -1.172729     5.080876 H          1 UNL1 0.000
    48 C       0.993424     0.483680    -0.681862 C          1 UNL1 0.000
    49 C       1.042482    -0.641267    -1.512764 C          1 UNL1 0.000
    50 C       1.797297    -0.624760    -2.691348 C          1 UNL1 0.000
    51 C       2.513724     0.519927    -3.072860 C          1 UNL1 0.000
    52 C       2.453310     1.652104    -2.256127 C          1 UNL1 0.000
    53 C       1.705212     1.628487    -1.071502 C          1 UNL1 0.000
    54 C       3.309467     0.453959    -4.339506 C          1 UNL1 0.000
    55 C       4.073878     1.653623    -4.841621 C          1 UNL1 0.000
    56 O       3.320004    -0.591609    -4.987511 O          1 UNL1 0.000
    57 H       0.505755    -1.548409    -1.241784 H          1 UNL1 0.000
    58 H       1.824700    -1.520229    -3.310871 H          1 UNL1 0.000
    59 H       2.973174     2.572264    -2.497677 H          1 UNL1 0.000
    60 H       1.677346     2.521222    -0.447589 H          1 UNL1 0.000
    61 H       5.070034     1.323363    -5.152805 H          1 UNL1 0.000
    62 H       4.220857     2.431418    -4.095089 H          1 UNL1 0.000
    63 H       3.546144     2.076649    -5.700575 H          1 UNL1 0.000
@<TRIPOS>BOND
     1      1      2   2
     2      2      3   1
     3      3      4   2
     4      4      5   1
     5      5      6   2
     6      6      1   1
     7      4      7   1
     8      7      8   1
     9      8      9   2
    10      9     10   1
    11     10     11   2
    12     11     12   1
    13     12     13   2
    14     13      8   1
    15     13      5   1
    16      1     14   1
    17     14     15   2
    18     15     16   1
    19     16     17   2
    20     17      6   1
    21     12     18   1
    22     18     19   2
    23     19     20   1
    24     20     21   2
    25     21     11   1
    26     22     23   2
    27     23     24   1
    28     24     25   2
    29     25     26   1
    30     26     27   2
    31     27     22   1
    32     28     29   1
    33     24     28   1
    34      7     22   1
    35      2     30   1
    36      3     31   1
    37      9     32   1
    38     10     33   1
    39     14     34   1
    40     15     35   1
    41     16     36   1
    42     17     37   1
    43     18     38   1
    44     19     39   1
    45     20     40   1
    46     21     41   1
    47     23     42   1
    48     25     43   1
    49     27     44   1
    50     29     45   1
    51     29     46   1
    52     29     47   1
    53     48     49   2
    54     49     50   1
    55     50     51   2
    56     51     52   1
    57     52     53   2
    58     53     48   1
    59     51     54   1
    60     54     55   1
    61     54     56   2
    62     49     57   1
    63     50     58   1
    64     52     59   1
    65     53     60   1
    66     55     61   1
    67     55     62   1
    68     55     63   1
    69     26     48   1
