# Produced with molli package
@<TRIPOS>MOLECULE
D_5_M
61 68 0 0 0
SMALL
USER_CHARGES

@<TRIPOS>ATOM
     1 C      -8.258968     3.655980    -1.978135 C          1 UNL1 0.000
     2 C      -6.923756     3.979101    -1.747570 C          1 UNL1 0.000
     3 C      -5.936664     2.997997    -1.735225 C          1 UNL1 0.000
     4 C      -6.323238     1.653216    -1.858995 C          1 UNL1 0.000
     5 C      -7.658790     1.255518    -2.015934 C          1 UNL1 0.000
     6 C      -8.638102     2.304653    -2.196987 C          1 UNL1 0.000
     7 N      -5.539470     0.515974    -1.885998 N          1 UNL1 0.000
     8 C      -6.327398    -0.613853    -1.988718 C          1 UNL1 0.000
     9 C      -5.943904    -1.960625    -2.099845 C          1 UNL1 0.000
    10 C      -6.937320    -2.932937    -2.172587 C          1 UNL1 0.000
    11 C      -8.283662    -2.599817    -2.042106 C          1 UNL1 0.000
    12 C      -8.668136    -1.245552    -1.851488 C          1 UNL1 0.000
    13 C      -7.668071    -0.204871    -1.942484 C          1 UNL1 0.000
    14 C      -9.227327     4.673318    -2.025422 C          1 UNL1 0.000
    15 C     -10.554317     4.387916    -2.341278 C          1 UNL1 0.000
    16 C     -10.915347     3.090392    -2.674426 C          1 UNL1 0.000
    17 C      -9.962341     2.069595    -2.629712 C          1 UNL1 0.000
    18 C     -10.022190    -0.998138    -1.533510 C          1 UNL1 0.000
    19 C     -10.983367    -2.011703    -1.562450 C          1 UNL1 0.000
    20 C     -10.605969    -3.313915    -1.856991 C          1 UNL1 0.000
    21 C      -9.260504    -3.609881    -2.067975 C          1 UNL1 0.000
    22 C      -4.125881     0.515169    -1.889507 C          1 UNL1 0.000
    23 C      -3.459194     0.602433    -3.110378 C          1 UNL1 0.000
    24 C      -2.065404     0.606182    -3.120169 C          1 UNL1 0.000
    25 C      -1.335628     0.533270    -1.921084 C          1 UNL1 0.000
    26 C      -2.019451     0.457287    -0.683075 C          1 UNL1 0.000
    27 C      -3.426967     0.440904    -0.679282 C          1 UNL1 0.000
    28 C       0.065577     0.541344    -1.932915 C          1 UNL1 0.000
    29 C       0.790962     0.490456    -0.740671 C          1 UNL1 0.000
    30 C       0.136827     0.434390     0.496213 C          1 UNL1 0.000
    31 C      -1.268966     0.410277     0.509841 C          1 UNL1 0.000
    32 H      -6.622781     5.017322    -1.621124 H          1 UNL1 0.000
    33 H      -4.892855     3.275762    -1.614565 H          1 UNL1 0.000
    34 H      -4.896307    -2.246838    -2.143542 H          1 UNL1 0.000
    35 H      -6.636147    -3.972702    -2.285362 H          1 UNL1 0.000
    36 H      -8.951510     5.705956    -1.822096 H          1 UNL1 0.000
    37 H     -11.293615     5.183909    -2.362966 H          1 UNL1 0.000
    38 H     -11.934624     2.867834    -2.979222 H          1 UNL1 0.000
    39 H     -10.260517     1.089977    -2.986731 H          1 UNL1 0.000
    40 H     -10.341817    -0.014554    -1.207702 H          1 UNL1 0.000
    41 H     -12.022297    -1.780046    -1.342682 H          1 UNL1 0.000
    42 H     -11.350104    -4.105143    -1.886791 H          1 UNL1 0.000
    43 H      -8.977338    -4.645506    -2.244299 H          1 UNL1 0.000
    44 H      -4.008502     0.667356    -4.046632 H          1 UNL1 0.000
    45 H      -1.547962     0.673205    -4.075078 H          1 UNL1 0.000
    46 H      -3.972592     0.377253     0.260034 H          1 UNL1 0.000
    47 H       0.609344     0.597193    -2.873581 H          1 UNL1 0.000
    48 H       1.878477     0.514174    -0.782731 H          1 UNL1 0.000
    49 H      -1.785996     0.358755     1.467142 H          1 UNL1 0.000
    50 C       0.916184     0.433326     1.740037 C          1 UNL1 0.000
    51 C       0.980276     1.583754     2.542036 C          1 UNL1 0.000
    52 C       1.761996     1.608574     3.702066 C          1 UNL1 0.000
    53 C       2.489702     0.477524     4.081153 C          1 UNL1 0.000
    54 C       2.429733    -0.677132     3.295837 C          1 UNL1 0.000
    55 C       1.650169    -0.696597     2.133456 C          1 UNL1 0.000
    56 C       3.298667     0.504755     5.265591 C          1 UNL1 0.000
    57 N       3.954063     0.528821     6.221938 N          1 UNL1 0.000
    58 H       0.432609     2.479313     2.252447 H          1 UNL1 0.000
    59 H       1.803012     2.518369     4.298318 H          1 UNL1 0.000
    60 H       2.991449    -1.566253     3.576954 H          1 UNL1 0.000
    61 H       1.620574    -1.602328     1.529759 H          1 UNL1 0.000
@<TRIPOS>BOND
     1      1      2   2
     2      2      3   1
     3      3      4   2
     4      4      5   1
     5      5      6   2
     6      6      1   1
     7      4      7   1
     8      7      8   1
     9      8      9   2
    10      9     10   1
    11     10     11   2
    12     11     12   1
    13     12     13   2
    14     13      8   1
    15     13      5   1
    16      1     14   1
    17     14     15   2
    18     15     16   1
    19     16     17   2
    20     17      6   1
    21     12     18   1
    22     18     19   2
    23     19     20   1
    24     20     21   2
    25     21     11   1
    26     22     23   2
    27     23     24   1
    28     24     25   2
    29     25     26   1
    30     26     27   2
    31     27     22   1
    32     25     28   1
    33     28     29   2
    34     29     30   1
    35     30     31   2
    36     31     26   1
    37      7     22   1
    38      2     32   1
    39      3     33   1
    40      9     34   1
    41     10     35   1
    42     14     36   1
    43     15     37   1
    44     16     38   1
    45     17     39   1
    46     18     40   1
    47     19     41   1
    48     20     42   1
    49     21     43   1
    50     23     44   1
    51     24     45   1
    52     27     46   1
    53     28     47   1
    54     29     48   1
    55     31     49   1
    56     50     51   2
    57     51     52   1
    58     52     53   2
    59     53     54   1
    60     54     55   2
    61     55     50   1
    62     56     57   3
    63     53     56   1
    64     51     58   1
    65     52     59   1
    66     54     60   1
    67     55     61   1
    68     30     50   1
