# Produced with molli package
@<TRIPOS>MOLECULE
D_5_Q
58 65 0 0 0
SMALL
USER_CHARGES

@<TRIPOS>ATOM
     1 C      -8.241988     3.618973    -2.113569 C          1 UNL1 0.000
     2 C      -6.907192     3.928068    -2.369945 C          1 UNL1 0.000
     3 C      -5.918221     2.949288    -2.315914 C          1 UNL1 0.000
     4 C      -6.303606     1.618145    -2.086960 C          1 UNL1 0.000
     5 C      -7.641313     1.227532    -1.947062 C          1 UNL1 0.000
     6 C      -8.625830     2.276406    -1.851770 C          1 UNL1 0.000
     7 N      -5.523677     0.493465    -1.899312 N          1 UNL1 0.000
     8 C      -6.317454    -0.625635    -1.734889 C          1 UNL1 0.000
     9 C      -5.951727    -1.958329    -1.483422 C          1 UNL1 0.000
    10 C      -6.946901    -2.932700    -1.484632 C          1 UNL1 0.000
    11 C      -8.262679    -2.618535    -1.821195 C          1 UNL1 0.000
    12 C      -8.624928    -1.274046    -2.102588 C          1 UNL1 0.000
    13 C      -7.644239    -0.228951    -1.945956 C          1 UNL1 0.000
    14 C      -9.204251     4.641154    -2.071971 C          1 UNL1 0.000
    15 C     -10.526114     4.368016    -1.722868 C          1 UNL1 0.000
    16 C     -10.896374     3.073180    -1.383638 C          1 UNL1 0.000
    17 C      -9.954612     2.042794    -1.433318 C          1 UNL1 0.000
    18 C      -9.923515    -1.034904    -2.604549 C          1 UNL1 0.000
    19 C     -10.862892    -2.062247    -2.719429 C          1 UNL1 0.000
    20 C     -10.519225    -3.359238    -2.361137 C          1 UNL1 0.000
    21 C      -9.223723    -3.637437    -1.927196 C          1 UNL1 0.000
    22 C      -4.112857     0.479416    -1.925955 C          1 UNL1 0.000
    23 C      -3.460451     0.509316    -3.157994 C          1 UNL1 0.000
    24 C      -2.067539     0.470707    -3.184770 C          1 UNL1 0.000
    25 C      -1.326152     0.424020    -1.991690 C          1 UNL1 0.000
    26 C      -2.000396     0.420136    -0.745693 C          1 UNL1 0.000
    27 C      -3.403320     0.433125    -0.723159 C          1 UNL1 0.000
    28 C       0.074344     0.388523    -2.011461 C          1 UNL1 0.000
    29 C       0.805234     0.360669    -0.820892 C          1 UNL1 0.000
    30 C       0.156053     0.376487     0.421509 C          1 UNL1 0.000
    31 C      -1.248100     0.409101     0.441870 C          1 UNL1 0.000
    32 H      -6.605738     4.957543    -2.553918 H          1 UNL1 0.000
    33 H      -4.873069     3.222091    -2.435846 H          1 UNL1 0.000
    34 H      -4.916281    -2.236126    -1.305801 H          1 UNL1 0.000
    35 H      -6.661377    -3.963513    -1.283491 H          1 UNL1 0.000
    36 H      -8.924519     5.669839    -2.289538 H          1 UNL1 0.000
    37 H     -11.255719     5.172351    -1.683591 H          1 UNL1 0.000
    38 H     -11.913491     2.862524    -1.063727 H          1 UNL1 0.000
    39 H     -10.260876     1.061159    -1.086025 H          1 UNL1 0.000
    40 H     -10.203613    -0.051534    -2.968613 H          1 UNL1 0.000
    41 H     -11.856053    -1.847512    -3.105202 H          1 UNL1 0.000
    42 H     -11.246877    -4.161260    -2.451469 H          1 UNL1 0.000
    43 H      -8.961749    -4.667808    -1.695949 H          1 UNL1 0.000
    44 H      -4.020956     0.542690    -4.089162 H          1 UNL1 0.000
    45 H      -1.560499     0.479700    -4.147625 H          1 UNL1 0.000
    46 H      -3.938423     0.425270     0.224629 H          1 UNL1 0.000
    47 H       0.612432     0.392049    -2.957314 H          1 UNL1 0.000
    48 H       1.892650     0.352904    -0.870430 H          1 UNL1 0.000
    49 H      -1.757995     0.433625     1.404838 H          1 UNL1 0.000
    50 C       0.922570     0.371565     1.666636 C          1 UNL1 0.000
    51 N       0.892765     1.515267     2.397456 N          1 UNL1 0.000
    52 C       1.633880     1.511228     3.529692 C          1 UNL1 0.000
    53 C       2.368570     0.410132     3.935398 C          1 UNL1 0.000
    54 N       2.398847    -0.740041     3.226942 N          1 UNL1 0.000
    55 C       1.662986    -0.731416     2.087280 C          1 UNL1 0.000
    56 H       1.624054     2.429294     4.106089 H          1 UNL1 0.000
    57 H       2.956421     0.424958     4.846026 H          1 UNL1 0.000
    58 H       1.681136    -1.652576     1.514318 H          1 UNL1 0.000
@<TRIPOS>BOND
     1      1      2   2
     2      2      3   1
     3      3      4   2
     4      4      5   1
     5      5      6   2
     6      6      1   1
     7      4      7   1
     8      7      8   1
     9      8      9   2
    10      9     10   1
    11     10     11   2
    12     11     12   1
    13     12     13   2
    14     13      8   1
    15     13      5   1
    16      1     14   1
    17     14     15   2
    18     15     16   1
    19     16     17   2
    20     17      6   1
    21     12     18   1
    22     18     19   2
    23     19     20   1
    24     20     21   2
    25     21     11   1
    26     22     23   2
    27     23     24   1
    28     24     25   2
    29     25     26   1
    30     26     27   2
    31     27     22   1
    32     25     28   1
    33     28     29   2
    34     29     30   1
    35     30     31   2
    36     31     26   1
    37      7     22   1
    38      2     32   1
    39      3     33   1
    40      9     34   1
    41     10     35   1
    42     14     36   1
    43     15     37   1
    44     16     38   1
    45     17     39   1
    46     18     40   1
    47     19     41   1
    48     20     42   1
    49     21     43   1
    50     23     44   1
    51     24     45   1
    52     27     46   1
    53     28     47   1
    54     29     48   1
    55     31     49   1
    56     50     51   2
    57     51     52   1
    58     52     53   2
    59     53     54   1
    60     54     55   2
    61     55     50   1
    62     52     56   1
    63     53     57   1
    64     55     58   1
    65     30     50   1
