# Produced with molli package
@<TRIPOS>MOLECULE
D_5_O
59 66 0 0 0
SMALL
USER_CHARGES

@<TRIPOS>ATOM
     1 C      -8.363095     3.630584    -2.076713 C          1 UNL1 0.000
     2 C      -7.040186     3.972254    -2.353255 C          1 UNL1 0.000
     3 C      -6.029318     3.014693    -2.330800 C          1 UNL1 0.000
     4 C      -6.382073     1.672448    -2.115266 C          1 UNL1 0.000
     5 C      -7.708608     1.250556    -1.959446 C          1 UNL1 0.000
     6 C      -8.712958     2.276318    -1.828191 C          1 UNL1 0.000
     7 N      -5.575706     0.562214    -1.958175 N          1 UNL1 0.000
     8 C      -6.342326    -0.577259    -1.806470 C          1 UNL1 0.000
     9 C      -5.942758    -1.905902    -1.587127 C          1 UNL1 0.000
    10 C      -6.916146    -2.901770    -1.587644 C          1 UNL1 0.000
    11 C      -8.244984    -2.610259    -1.891372 C          1 UNL1 0.000
    12 C      -8.642076    -1.269026    -2.140217 C          1 UNL1 0.000
    13 C      -7.680954    -0.205646    -1.984397 C          1 UNL1 0.000
    14 C      -9.346331     4.630683    -2.001291 C          1 UNL1 0.000
    15 C     -10.654725     4.323670    -1.630062 C          1 UNL1 0.000
    16 C     -10.990046     3.016316    -1.302638 C          1 UNL1 0.000
    17 C     -10.027619     2.007549    -1.386923 C          1 UNL1 0.000
    18 C      -9.956216    -1.049649    -2.609575 C          1 UNL1 0.000
    19 C     -10.875509    -2.095216    -2.722904 C          1 UNL1 0.000
    20 C     -10.496118    -3.390621    -2.396299 C          1 UNL1 0.000
    21 C      -9.185713    -3.648020    -1.995747 C          1 UNL1 0.000
    22 C      -4.165356     0.579574    -1.991570 C          1 UNL1 0.000
    23 C      -3.518002     0.606689    -3.225868 C          1 UNL1 0.000
    24 C      -2.124366     0.587775    -3.256806 C          1 UNL1 0.000
    25 C      -1.378588     0.558665    -2.065160 C          1 UNL1 0.000
    26 C      -2.048960     0.556143    -0.817911 C          1 UNL1 0.000
    27 C      -3.451750     0.554253    -0.790511 C          1 UNL1 0.000
    28 C       0.022680     0.536645    -2.088139 C          1 UNL1 0.000
    29 C       0.756029     0.520022    -0.898413 C          1 UNL1 0.000
    30 C       0.109827     0.535527     0.345181 C          1 UNL1 0.000
    31 C      -1.294414     0.557673     0.368173 C          1 UNL1 0.000
    32 H      -6.764420     5.010542    -2.527734 H          1 UNL1 0.000
    33 H      -4.992474     3.311409    -2.465493 H          1 UNL1 0.000
    34 H      -4.898215    -2.163179    -1.432940 H          1 UNL1 0.000
    35 H      -6.604239    -3.929398    -1.411112 H          1 UNL1 0.000
    36 H      -9.093218     5.668262    -2.208962 H          1 UNL1 0.000
    37 H     -11.400496     5.111250    -1.564115 H          1 UNL1 0.000
    38 H     -11.995499     2.778956    -0.965086 H          1 UNL1 0.000
    39 H     -10.305189     1.014453    -1.048147 H          1 UNL1 0.000
    40 H     -10.265523    -0.066286    -2.949064 H          1 UNL1 0.000
    41 H     -11.881430    -1.895391    -3.082707 H          1 UNL1 0.000
    42 H     -11.208097    -4.206681    -2.485499 H          1 UNL1 0.000
    43 H      -8.896451    -4.676303    -1.789084 H          1 UNL1 0.000
    44 H      -4.081910     0.623184    -4.155374 H          1 UNL1 0.000
    45 H      -1.620096     0.595541    -4.220792 H          1 UNL1 0.000
    46 H      -3.983014     0.545284     0.159106 H          1 UNL1 0.000
    47 H       0.558901     0.539742    -3.034521 H          1 UNL1 0.000
    48 H       1.843203     0.519417    -0.946951 H          1 UNL1 0.000
    49 H      -1.799973     0.581228     1.332984 H          1 UNL1 0.000
    50 C       0.878159     0.536923     1.592588 C          1 UNL1 0.000
    51 N       0.805602     1.674051     2.326731 N          1 UNL1 0.000
    52 C       1.521997     1.720878     3.471063 C          1 UNL1 0.000
    53 C       2.302440     0.676079     3.935914 C          1 UNL1 0.000
    54 C       2.355088    -0.489091     3.181198 C          1 UNL1 0.000
    55 C       1.637938    -0.561624     1.989716 C          1 UNL1 0.000
    56 H       1.450249     2.654312     4.022042 H          1 UNL1 0.000
    57 H       2.854532     0.768574     4.864343 H          1 UNL1 0.000
    58 H       2.949451    -1.334454     3.515501 H          1 UNL1 0.000
    59 H       1.664324    -1.463732     1.387112 H          1 UNL1 0.000
@<TRIPOS>BOND
     1      1      2   2
     2      2      3   1
     3      3      4   2
     4      4      5   1
     5      5      6   2
     6      6      1   1
     7      4      7   1
     8      7      8   1
     9      8      9   2
    10      9     10   1
    11     10     11   2
    12     11     12   1
    13     12     13   2
    14     13      8   1
    15     13      5   1
    16      1     14   1
    17     14     15   2
    18     15     16   1
    19     16     17   2
    20     17      6   1
    21     12     18   1
    22     18     19   2
    23     19     20   1
    24     20     21   2
    25     21     11   1
    26     22     23   2
    27     23     24   1
    28     24     25   2
    29     25     26   1
    30     26     27   2
    31     27     22   1
    32     25     28   1
    33     28     29   2
    34     29     30   1
    35     30     31   2
    36     31     26   1
    37      7     22   1
    38      2     32   1
    39      3     33   1
    40      9     34   1
    41     10     35   1
    42     14     36   1
    43     15     37   1
    44     16     38   1
    45     17     39   1
    46     18     40   1
    47     19     41   1
    48     20     42   1
    49     21     43   1
    50     23     44   1
    51     24     45   1
    52     27     46   1
    53     28     47   1
    54     29     48   1
    55     31     49   1
    56     50     51   2
    57     51     52   1
    58     52     53   2
    59     53     54   1
    60     54     55   2
    61     55     50   1
    62     52     56   1
    63     53     57   1
    64     54     58   1
    65     55     59   1
    66     30     50   1
