# Produced with molli package
@<TRIPOS>MOLECULE
D_5_T
63 70 0 0 0
SMALL
USER_CHARGES

@<TRIPOS>ATOM
     1 C      -8.260143     3.594111    -2.176712 C          1 UNL1 0.000
     2 C      -6.932653     3.917197    -2.452063 C          1 UNL1 0.000
     3 C      -5.930364     2.951966    -2.396190 C          1 UNL1 0.000
     4 C      -6.294318     1.618035    -2.146275 C          1 UNL1 0.000
     5 C      -7.625313     1.213253    -1.986375 C          1 UNL1 0.000
     6 C      -8.622999     2.249866    -1.895532 C          1 UNL1 0.000
     7 N      -5.497175     0.507266    -1.937568 N          1 UNL1 0.000
     8 C      -6.277289    -0.617807    -1.744211 C          1 UNL1 0.000
     9 C      -5.897030    -1.942840    -1.473436 C          1 UNL1 0.000
    10 C      -6.880827    -2.929243    -1.463642 C          1 UNL1 0.000
    11 C      -8.199787    -2.635898    -1.807050 C          1 UNL1 0.000
    12 C      -8.577399    -1.299720    -2.105104 C          1 UNL1 0.000
    13 C      -7.609059    -0.241682    -1.963278 C          1 UNL1 0.000
    14 C      -9.234877     4.604351    -2.133184 C          1 UNL1 0.000
    15 C     -10.548424     4.318018    -1.763753 C          1 UNL1 0.000
    16 C     -10.897868     3.021899    -1.407588 C          1 UNL1 0.000
    17 C      -9.943738     2.003065    -1.459286 C          1 UNL1 0.000
    18 C      -9.877858    -1.080664    -2.611671 C          1 UNL1 0.000
    19 C     -10.804536    -2.120170    -2.718289 C          1 UNL1 0.000
    20 C     -10.445943    -3.409214    -2.346092 C          1 UNL1 0.000
    21 C      -9.148480    -3.667244    -1.905036 C          1 UNL1 0.000
    22 C      -4.084701     0.517089    -1.957558 C          1 UNL1 0.000
    23 C      -3.425760     0.675438    -3.176367 C          1 UNL1 0.000
    24 C      -2.031985     0.688246    -3.195407 C          1 UNL1 0.000
    25 C      -1.296096     0.581664    -2.002916 C          1 UNL1 0.000
    26 C      -1.975898     0.447980    -0.768103 C          1 UNL1 0.000
    27 C      -3.378557     0.392471    -0.757476 C          1 UNL1 0.000
    28 C       0.104757     0.619595    -2.013124 C          1 UNL1 0.000
    29 C       0.828396     0.559782    -0.819772 C          1 UNL1 0.000
    30 C       0.171146     0.461451     0.412471 C          1 UNL1 0.000
    31 C      -1.231053     0.392840     0.423330 C          1 UNL1 0.000
    32 H      -6.646574     4.948401    -2.650280 H          1 UNL1 0.000
    33 H      -4.890429     3.239505    -2.525750 H          1 UNL1 0.000
    34 H      -4.858397    -2.208094    -1.295318 H          1 UNL1 0.000
    35 H      -6.582890    -3.954143    -1.250494 H          1 UNL1 0.000
    36 H      -8.971117     5.634336    -2.364076 H          1 UNL1 0.000
    37 H     -11.287551     5.113508    -1.722110 H          1 UNL1 0.000
    38 H     -11.908022     2.801557    -1.072480 H          1 UNL1 0.000
    39 H     -10.233246     1.020750    -1.099459 H          1 UNL1 0.000
    40 H     -10.168889    -0.104154    -2.985787 H          1 UNL1 0.000
    41 H     -11.799093    -1.921330    -3.108962 H          1 UNL1 0.000
    42 H     -11.163423    -4.220943    -2.430962 H          1 UNL1 0.000
    43 H      -8.874726    -4.691985    -1.662754 H          1 UNL1 0.000
    44 H      -3.980978     0.766106    -4.107026 H          1 UNL1 0.000
    45 H      -1.520489     0.793560    -4.150073 H          1 UNL1 0.000
    46 H      -3.916754     0.290454     0.183012 H          1 UNL1 0.000
    47 H       0.648202     0.711811    -2.951013 H          1 UNL1 0.000
    48 H       1.915030     0.611302    -0.854055 H          1 UNL1 0.000
    49 H      -1.746190     0.310471     1.379650 H          1 UNL1 0.000
    50 C       0.934996     0.462263     1.662636 C          1 UNL1 0.000
    51 C       1.052637     1.634792     2.423048 C          1 UNL1 0.000
    52 C       1.802318     1.652573     3.602581 C          1 UNL1 0.000
    53 C       2.440065     0.492506     4.052885 C          1 UNL1 0.000
    54 C       2.330811    -0.679514     3.295825 C          1 UNL1 0.000
    55 C       1.583808    -0.694465     2.113852 C          1 UNL1 0.000
    56 C       3.275471     0.511042     5.298450 C          1 UNL1 0.000
    57 H       0.567840     2.550241     2.089314 H          1 UNL1 0.000
    58 H       1.885706     2.580944     4.163038 H          1 UNL1 0.000
    59 H       2.829874    -1.589948     3.620113 H          1 UNL1 0.000
    60 H       1.512165    -1.617177     1.541920 H          1 UNL1 0.000
    61 H       4.337198     0.554610     5.036274 H          1 UNL1 0.000
    62 H       3.090567    -0.386152     5.898187 H          1 UNL1 0.000
    63 H       3.037050     1.377494     5.924255 H          1 UNL1 0.000
@<TRIPOS>BOND
     1      1      2   2
     2      2      3   1
     3      3      4   2
     4      4      5   1
     5      5      6   2
     6      6      1   1
     7      4      7   1
     8      7      8   1
     9      8      9   2
    10      9     10   1
    11     10     11   2
    12     11     12   1
    13     12     13   2
    14     13      8   1
    15     13      5   1
    16      1     14   1
    17     14     15   2
    18     15     16   1
    19     16     17   2
    20     17      6   1
    21     12     18   1
    22     18     19   2
    23     19     20   1
    24     20     21   2
    25     21     11   1
    26     22     23   2
    27     23     24   1
    28     24     25   2
    29     25     26   1
    30     26     27   2
    31     27     22   1
    32     25     28   1
    33     28     29   2
    34     29     30   1
    35     30     31   2
    36     31     26   1
    37      7     22   1
    38      2     32   1
    39      3     33   1
    40      9     34   1
    41     10     35   1
    42     14     36   1
    43     15     37   1
    44     16     38   1
    45     17     39   1
    46     18     40   1
    47     19     41   1
    48     20     42   1
    49     21     43   1
    50     23     44   1
    51     24     45   1
    52     27     46   1
    53     28     47   1
    54     29     48   1
    55     31     49   1
    56     50     51   2
    57     51     52   1
    58     52     53   2
    59     53     54   1
    60     54     55   2
    61     55     50   1
    62     53     56   1
    63     51     57   1
    64     52     58   1
    65     54     59   1
    66     55     60   1
    67     56     61   1
    68     56     62   1
    69     56     63   1
    70     30     50   1
