# Produced with molli package
@<TRIPOS>MOLECULE
D_5_S
65 72 0 0 0
SMALL
USER_CHARGES

@<TRIPOS>ATOM
     1 C      -8.332142     3.583855    -2.001303 C          1 UNL1 0.000
     2 C      -6.993190     3.910372    -2.209926 C          1 UNL1 0.000
     3 C      -5.994982     2.941796    -2.137195 C          1 UNL1 0.000
     4 C      -6.372525     1.601340    -1.953887 C          1 UNL1 0.000
     5 C      -7.710317     1.196493    -1.850422 C          1 UNL1 0.000
     6 C      -8.705503     2.237050    -1.750083 C          1 UNL1 0.000
     7 N      -5.584866     0.475694    -1.808491 N          1 UNL1 0.000
     8 C      -6.370443    -0.659572    -1.742316 C          1 UNL1 0.000
     9 C      -5.987717    -2.003378    -1.597659 C          1 UNL1 0.000
    10 C      -6.975422    -2.984388    -1.623360 C          1 UNL1 0.000
    11 C      -8.307291    -2.661380    -1.875441 C          1 UNL1 0.000
    12 C      -8.686187    -1.307663    -2.079996 C          1 UNL1 0.000
    13 C      -7.705003    -0.261842    -1.902122 C          1 UNL1 0.000
    14 C      -9.311785     4.591142    -2.005628 C          1 UNL1 0.000
    15 C     -10.642216     4.300258    -1.706896 C          1 UNL1 0.000
    16 C     -11.001382     3.005924    -1.356449 C          1 UNL1 0.000
    17 C     -10.040442     1.992283    -1.358307 C          1 UNL1 0.000
    18 C     -10.008325    -1.062752    -2.514490 C          1 UNL1 0.000
    19 C     -10.954793    -2.086466    -2.603836 C          1 UNL1 0.000
    20 C     -10.591713    -3.392158    -2.305235 C          1 UNL1 0.000
    21 C      -9.270843    -3.680285    -1.965704 C          1 UNL1 0.000
    22 C      -4.172058     0.471477    -1.830282 C          1 UNL1 0.000
    23 C      -3.521067     0.424594    -3.061738 C          1 UNL1 0.000
    24 C      -2.128154     0.391003    -3.087871 C          1 UNL1 0.000
    25 C      -1.384179     0.407540    -1.895328 C          1 UNL1 0.000
    26 C      -2.052003     0.465240    -0.647694 C          1 UNL1 0.000
    27 C      -3.458807     0.492845    -0.626467 C          1 UNL1 0.000
    28 C       0.015858     0.365399    -1.923258 C          1 UNL1 0.000
    29 C       0.755314     0.380140    -0.738499 C          1 UNL1 0.000
    30 C       0.118097     0.444336     0.507180 C          1 UNL1 0.000
    31 C      -1.287073     0.489327     0.536861 C          1 UNL1 0.000
    32 H      -6.699166     4.944731    -2.377837 H          1 UNL1 0.000
    33 H      -4.950211     3.225950    -2.230961 H          1 UNL1 0.000
    34 H      -4.945054    -2.282118    -1.469698 H          1 UNL1 0.000
    35 H      -6.675722    -4.023050    -1.497236 H          1 UNL1 0.000
    36 H      -9.041450     5.621113    -2.228793 H          1 UNL1 0.000
    37 H     -11.387730     5.090803    -1.713742 H          1 UNL1 0.000
    38 H     -12.025477     2.781574    -1.069757 H          1 UNL1 0.000
    39 H     -10.339415     1.012651    -0.999514 H          1 UNL1 0.000
    40 H     -10.308777    -0.073407    -2.841866 H          1 UNL1 0.000
    41 H     -11.969630    -1.860162    -2.920505 H          1 UNL1 0.000
    42 H     -11.324901    -4.191460    -2.370596 H          1 UNL1 0.000
    43 H      -8.994349    -4.717124    -1.786068 H          1 UNL1 0.000
    44 H      -4.082263     0.403015    -3.992924 H          1 UNL1 0.000
    45 H      -1.622787     0.347187    -4.050504 H          1 UNL1 0.000
    46 H      -3.992765     0.531481     0.320898 H          1 UNL1 0.000
    47 H       0.547918     0.321211    -2.871144 H          1 UNL1 0.000
    48 H       1.842061     0.352765    -0.794679 H          1 UNL1 0.000
    49 H      -1.792786     0.535290     1.500520 H          1 UNL1 0.000
    50 C       0.913563     0.466867     1.741680 C          1 UNL1 0.000
    51 C       0.995719     1.625562     2.525229 C          1 UNL1 0.000
    52 C       1.786021     1.654893     3.680152 C          1 UNL1 0.000
    53 C       2.507212     0.522607     4.082078 C          1 UNL1 0.000
    54 C       2.437730    -0.636221     3.303367 C          1 UNL1 0.000
    55 C       1.645240    -0.660868     2.147163 C          1 UNL1 0.000
    56 C       3.333154     0.617648     5.324262 C          1 UNL1 0.000
    57 C       3.936625    -0.625358     5.927206 C          1 UNL1 0.000
    58 O       3.529293     1.717579     5.838472 O          1 UNL1 0.000
    59 H       0.458255     2.525150     2.230360 H          1 UNL1 0.000
    60 H       1.839707     2.573715     4.262362 H          1 UNL1 0.000
    61 H       2.996442    -1.531626     3.557402 H          1 UNL1 0.000
    62 H       1.603325    -1.573889     1.554755 H          1 UNL1 0.000
    63 H       4.965887    -0.737565     5.577513 H          1 UNL1 0.000
    64 H       3.360409    -1.523195     5.698268 H          1 UNL1 0.000
    65 H       3.933271    -0.520914     7.017125 H          1 UNL1 0.000
@<TRIPOS>BOND
     1      1      2   2
     2      2      3   1
     3      3      4   2
     4      4      5   1
     5      5      6   2
     6      6      1   1
     7      4      7   1
     8      7      8   1
     9      8      9   2
    10      9     10   1
    11     10     11   2
    12     11     12   1
    13     12     13   2
    14     13      8   1
    15     13      5   1
    16      1     14   1
    17     14     15   2
    18     15     16   1
    19     16     17   2
    20     17      6   1
    21     12     18   1
    22     18     19   2
    23     19     20   1
    24     20     21   2
    25     21     11   1
    26     22     23   2
    27     23     24   1
    28     24     25   2
    29     25     26   1
    30     26     27   2
    31     27     22   1
    32     25     28   1
    33     28     29   2
    34     29     30   1
    35     30     31   2
    36     31     26   1
    37      7     22   1
    38      2     32   1
    39      3     33   1
    40      9     34   1
    41     10     35   1
    42     14     36   1
    43     15     37   1
    44     16     38   1
    45     17     39   1
    46     18     40   1
    47     19     41   1
    48     20     42   1
    49     21     43   1
    50     23     44   1
    51     24     45   1
    52     27     46   1
    53     28     47   1
    54     29     48   1
    55     31     49   1
    56     50     51   2
    57     51     52   1
    58     52     53   2
    59     53     54   1
    60     54     55   2
    61     55     50   1
    62     53     56   1
    63     56     57   1
    64     56     58   2
    65     51     59   1
    66     52     60   1
    67     54     61   1
    68     55     62   1
    69     57     63   1
    70     57     64   1
    71     57     65   1
    72     30     50   1
