# Produced with molli package
@<TRIPOS>MOLECULE
D_5_K
62 69 0 0 0
SMALL
USER_CHARGES

@<TRIPOS>ATOM
     1 C      -8.173296     3.617671    -1.945294 C          1 UNL1 0.000
     2 C      -6.853254     3.934345    -1.631756 C          1 UNL1 0.000
     3 C      -5.862404     2.957206    -1.621501 C          1 UNL1 0.000
     4 C      -6.234418     1.621198    -1.843922 C          1 UNL1 0.000
     5 C      -7.562020     1.223051    -2.049395 C          1 UNL1 0.000
     6 C      -8.541947     2.270836    -2.210865 C          1 UNL1 0.000
     7 N      -5.441580     0.497158    -1.964663 N          1 UNL1 0.000
     8 C      -6.218517    -0.628906    -2.150397 C          1 UNL1 0.000
     9 C      -5.827202    -1.961327    -2.360836 C          1 UNL1 0.000
    10 C      -6.814230    -2.939469    -2.442955 C          1 UNL1 0.000
    11 C      -8.155506    -2.629152    -2.227380 C          1 UNL1 0.000
    12 C      -8.545693    -1.287282    -1.969007 C          1 UNL1 0.000
    13 C      -7.559418    -0.236250    -2.043258 C          1 UNL1 0.000
    14 C      -9.132959     4.638786    -2.039911 C          1 UNL1 0.000
    15 C     -10.437674     4.361589    -2.444064 C          1 UNL1 0.000
    16 C     -10.789298     3.064390    -2.792209 C          1 UNL1 0.000
    17 C      -9.848441     2.036127    -2.694082 C          1 UNL1 0.000
    18 C      -9.885464    -1.059745    -1.583690 C          1 UNL1 0.000
    19 C     -10.830265    -2.088926    -1.576926 C          1 UNL1 0.000
    20 C     -10.451898    -3.379751    -1.921193 C          1 UNL1 0.000
    21 C      -9.119310    -3.650897    -2.227112 C          1 UNL1 0.000
    22 C      -4.030663     0.508240    -1.948704 C          1 UNL1 0.000
    23 C      -3.342248     0.544062    -3.160069 C          1 UNL1 0.000
    24 C      -1.949081     0.577573    -3.142425 C          1 UNL1 0.000
    25 C      -1.244540     0.565340    -1.925998 C          1 UNL1 0.000
    26 C      -1.955194     0.523910    -0.701531 C          1 UNL1 0.000
    27 C      -3.358568     0.500630    -0.723081 C          1 UNL1 0.000
    28 C       0.155983     0.593623    -1.903711 C          1 UNL1 0.000
    29 C       0.850747     0.575156    -0.692165 C          1 UNL1 0.000
    30 C       0.165108     0.532530     0.528377 C          1 UNL1 0.000
    31 C      -1.238678     0.508216     0.509142 C          1 UNL1 0.000
    32 H      -6.562492     4.967249    -1.449859 H          1 UNL1 0.000
    33 H      -4.825001     3.233760    -1.452828 H          1 UNL1 0.000
    34 H      -4.779389    -2.233687    -2.455745 H          1 UNL1 0.000
    35 H      -6.508632    -3.968879    -2.620420 H          1 UNL1 0.000
    36 H      -8.864274     5.669611    -1.818353 H          1 UNL1 0.000
    37 H     -11.166306     5.164189    -2.519711 H          1 UNL1 0.000
    38 H     -11.790633     2.849720    -3.156285 H          1 UNL1 0.000
    39 H     -10.136778     1.054694    -3.055482 H          1 UNL1 0.000
    40 H     -10.200749    -0.083600    -1.229841 H          1 UNL1 0.000
    41 H     -11.857023    -1.880171    -1.287970 H          1 UNL1 0.000
    42 H     -11.184101    -4.182697    -1.918529 H          1 UNL1 0.000
    43 H      -8.833946    -4.677495    -2.447431 H          1 UNL1 0.000
    44 H      -3.874427     0.560435    -4.108203 H          1 UNL1 0.000
    45 H      -1.412800     0.615650    -4.088404 H          1 UNL1 0.000
    46 H      -3.923478     0.468313     0.206424 H          1 UNL1 0.000
    47 H       0.722143     0.632045    -2.831883 H          1 UNL1 0.000
    48 H       1.938745     0.603805    -0.706822 H          1 UNL1 0.000
    49 H      -1.779987     0.469549     1.453537 H          1 UNL1 0.000
    50 C       0.906225     0.524051     1.793612 C          1 UNL1 0.000
    51 C       0.946731     1.671412     2.605209 C          1 UNL1 0.000
    52 C       1.678981     1.682393     3.795290 C          1 UNL1 0.000
    53 C       2.379585     0.532827     4.172948 C          1 UNL1 0.000
    54 C       2.350704    -0.623517     3.388332 C          1 UNL1 0.000
    55 C       1.610904    -0.622073     2.202994 C          1 UNL1 0.000
    56 N       3.162220     0.544944     5.404197 N          1 UNL1 0.000
    57 O       2.723369     1.206350     6.353326 O          1 UNL1 0.000
    58 O       4.217162    -0.107448     5.414289 O          1 UNL1 0.000
    59 H       0.415768     2.571960     2.299353 H          1 UNL1 0.000
    60 H       1.706027     2.584202     4.402802 H          1 UNL1 0.000
    61 H       2.891456    -1.519686     3.685046 H          1 UNL1 0.000
    62 H       1.584600    -1.523202     1.591608 H          1 UNL1 0.000
@<TRIPOS>BOND
     1      1      2   2
     2      2      3   1
     3      3      4   2
     4      4      5   1
     5      5      6   2
     6      6      1   1
     7      4      7   1
     8      7      8   1
     9      8      9   2
    10      9     10   1
    11     10     11   2
    12     11     12   1
    13     12     13   2
    14     13      8   1
    15     13      5   1
    16      1     14   1
    17     14     15   2
    18     15     16   1
    19     16     17   2
    20     17      6   1
    21     12     18   1
    22     18     19   2
    23     19     20   1
    24     20     21   2
    25     21     11   1
    26     22     23   2
    27     23     24   1
    28     24     25   2
    29     25     26   1
    30     26     27   2
    31     27     22   1
    32     25     28   1
    33     28     29   2
    34     29     30   1
    35     30     31   2
    36     31     26   1
    37      7     22   1
    38      2     32   1
    39      3     33   1
    40      9     34   1
    41     10     35   1
    42     14     36   1
    43     15     37   1
    44     16     38   1
    45     17     39   1
    46     18     40   1
    47     19     41   1
    48     20     42   1
    49     21     43   1
    50     23     44   1
    51     24     45   1
    52     27     46   1
    53     28     47   1
    54     29     48   1
    55     31     49   1
    56     50     51   2
    57     51     52   1
    58     52     53   2
    59     53     54   1
    60     54     55   2
    61     55     50   1
    62     56     57   2
    63     56     58   1
    64     53     56   1
    65     51     59   1
    66     52     60   1
    67     54     61   1
    68     55     62   1
    69     30     50   1
