# Produced with molli package
@<TRIPOS>MOLECULE
D_5_L
64 72 0 0 0
SMALL
USER_CHARGES

@<TRIPOS>ATOM
     1 C      -8.278108     3.599668    -2.137205 C          1 UNL1 0.000
     2 C      -6.948116     3.918804    -2.404489 C          1 UNL1 0.000
     3 C      -5.950363     2.949187    -2.349739 C          1 UNL1 0.000
     4 C      -6.321357     1.615642    -2.109050 C          1 UNL1 0.000
     5 C      -7.654322     1.214836    -1.954486 C          1 UNL1 0.000
     6 C      -8.647902     2.255807    -1.862042 C          1 UNL1 0.000
     7 N      -5.528905     0.500327    -1.910892 N          1 UNL1 0.000
     8 C      -6.312159    -0.623413    -1.726347 C          1 UNL1 0.000
     9 C      -5.934106    -1.950806    -1.464848 C          1 UNL1 0.000
    10 C      -6.920607    -2.934111    -1.454200 C          1 UNL1 0.000
    11 C      -8.240662    -2.634742    -1.787528 C          1 UNL1 0.000
    12 C      -8.615934    -1.296139    -2.078866 C          1 UNL1 0.000
    13 C      -7.643532    -0.241174    -1.937494 C          1 UNL1 0.000
    14 C      -9.248796     4.613899    -2.097030 C          1 UNL1 0.000
    15 C     -10.565816     4.332162    -1.736999 C          1 UNL1 0.000
    16 C     -10.922305     3.036924    -1.384908 C          1 UNL1 0.000
    17 C      -9.971763     2.014405    -1.432390 C          1 UNL1 0.000
    18 C      -9.919074    -1.072610    -2.576419 C          1 UNL1 0.000
    19 C     -10.850182    -2.108835    -2.677675 C          1 UNL1 0.000
    20 C     -10.493253    -3.399754    -2.310681 C          1 UNL1 0.000
    21 C      -9.193166    -3.662946    -1.880960 C          1 UNL1 0.000
    22 C      -4.117033     0.505276    -1.930891 C          1 UNL1 0.000
    23 C      -3.457350     0.628072    -3.153549 C          1 UNL1 0.000
    24 C      -2.063566     0.636512    -3.171683 C          1 UNL1 0.000
    25 C      -1.328289     0.557280    -1.976600 C          1 UNL1 0.000
    26 C      -2.010215     0.457089    -0.738930 C          1 UNL1 0.000
    27 C      -3.412666     0.410245    -0.727682 C          1 UNL1 0.000
    28 C       0.072857     0.587345    -1.985246 C          1 UNL1 0.000
    29 C       0.795167     0.548044    -0.790133 C          1 UNL1 0.000
    30 C       0.135640     0.479172     0.443015 C          1 UNL1 0.000
    31 C      -1.266924     0.422699     0.453508 C          1 UNL1 0.000
    32 H      -6.656891     4.949641    -2.596966 H          1 UNL1 0.000
    33 H      -4.908640     3.231967    -2.475613 H          1 UNL1 0.000
    34 H      -4.895325    -2.219240    -1.291997 H          1 UNL1 0.000
    35 H      -6.624595    -3.960793    -1.247009 H          1 UNL1 0.000
    36 H      -8.979441     5.643231    -2.324403 H          1 UNL1 0.000
    37 H     -11.302184     5.130384    -1.699358 H          1 UNL1 0.000
    38 H     -11.935418     2.819952    -1.056607 H          1 UNL1 0.000
    39 H     -10.267162     1.033157    -1.074721 H          1 UNL1 0.000
    40 H     -10.209533    -0.094937    -2.947606 H          1 UNL1 0.000
    41 H     -11.847152    -1.905875    -3.059966 H          1 UNL1 0.000
    42 H     -11.214174    -4.208882    -2.390973 H          1 UNL1 0.000
    43 H      -8.920794    -4.689092    -1.643030 H          1 UNL1 0.000
    44 H      -4.012296     0.696385    -4.086160 H          1 UNL1 0.000
    45 H      -1.550952     0.715095    -4.128308 H          1 UNL1 0.000
    46 H      -3.951942     0.333497     0.214593 H          1 UNL1 0.000
    47 H       0.617800     0.654424    -2.924440 H          1 UNL1 0.000
    48 H       1.882221     0.589017    -0.823975 H          1 UNL1 0.000
    49 H      -1.783486     0.362150     1.410715 H          1 UNL1 0.000
    50 C       0.896268     0.489888     1.695997 C          1 UNL1 0.000
    51 C       1.009564     1.670918     2.444077 C          1 UNL1 0.000
    52 C       1.738608     1.722839     3.638050 C          1 UNL1 0.000
    53 C       2.354662     0.543946     4.067891 C          1 UNL1 0.000
    54 C       2.266602    -0.653108     3.358453 C          1 UNL1 0.000
    55 C       1.529785    -0.678229     2.157294 C          1 UNL1 0.000
    56 N       3.122977     0.298091     5.183654 N          1 UNL1 0.000
    57 C       3.519693    -1.012770     5.205551 C          1 UNL1 0.000
    58 C       3.004051    -1.626886     4.087073 C          1 UNL1 0.000
    59 H       0.526188     2.580085     2.088747 H          1 UNL1 0.000
    60 H       1.818889     2.647000     4.200648 H          1 UNL1 0.000
    61 H       1.451587    -1.603458     1.592628 H          1 UNL1 0.000
    62 H       3.355651     0.989983     5.882470 H          1 UNL1 0.000
    63 H       4.131938    -1.393740     6.011686 H          1 UNL1 0.000
    64 H       3.140501    -2.666040     3.818320 H          1 UNL1 0.000
@<TRIPOS>BOND
     1      1      2   2
     2      2      3   1
     3      3      4   2
     4      4      5   1
     5      5      6   2
     6      6      1   1
     7      4      7   1
     8      7      8   1
     9      8      9   2
    10      9     10   1
    11     10     11   2
    12     11     12   1
    13     12     13   2
    14     13      8   1
    15     13      5   1
    16      1     14   1
    17     14     15   2
    18     15     16   1
    19     16     17   2
    20     17      6   1
    21     12     18   1
    22     18     19   2
    23     19     20   1
    24     20     21   2
    25     21     11   1
    26     22     23   2
    27     23     24   1
    28     24     25   2
    29     25     26   1
    30     26     27   2
    31     27     22   1
    32     25     28   1
    33     28     29   2
    34     29     30   1
    35     30     31   2
    36     31     26   1
    37      7     22   1
    38      2     32   1
    39      3     33   1
    40      9     34   1
    41     10     35   1
    42     14     36   1
    43     15     37   1
    44     16     38   1
    45     17     39   1
    46     18     40   1
    47     19     41   1
    48     20     42   1
    49     21     43   1
    50     23     44   1
    51     24     45   1
    52     27     46   1
    53     28     47   1
    54     29     48   1
    55     31     49   1
    56     50     51   2
    57     51     52   1
    58     52     53   2
    59     53     54   1
    60     54     55   2
    61     55     50   1
    62     53     56   1
    63     56     57   1
    64     57     58   2
    65     58     54   1
    66     51     59   1
    67     52     60   1
    68     55     61   1
    69     56     62   1
    70     57     63   1
    71     58     64   1
    72     30     50   1
