# Produced with molli package
@<TRIPOS>MOLECULE
D_5_P
64 71 0 0 0
SMALL
USER_CHARGES

@<TRIPOS>ATOM
     1 C      -8.206410     3.646675    -1.835859 C          1 UNL1 0.000
     2 C      -6.895186     3.946074    -1.469480 C          1 UNL1 0.000
     3 C      -5.906761     2.964509    -1.462713 C          1 UNL1 0.000
     4 C      -6.275494     1.637758    -1.740894 C          1 UNL1 0.000
     5 C      -7.601009     1.255175    -1.987676 C          1 UNL1 0.000
     6 C      -8.571850     2.309448    -2.144840 C          1 UNL1 0.000
     7 N      -5.485807     0.517261    -1.919931 N          1 UNL1 0.000
     8 C      -6.272613    -0.597582    -2.146112 C          1 UNL1 0.000
     9 C      -5.894511    -1.929382    -2.387129 C          1 UNL1 0.000
    10 C      -6.888682    -2.900122    -2.473284 C          1 UNL1 0.000
    11 C      -8.224956    -2.584844    -2.236027 C          1 UNL1 0.000
    12 C      -8.603302    -1.243809    -1.958458 C          1 UNL1 0.000
    13 C      -7.609337    -0.200462    -2.017949 C          1 UNL1 0.000
    14 C      -9.158406     4.673810    -1.945814 C          1 UNL1 0.000
    15 C     -10.447313     4.411142    -2.408338 C          1 UNL1 0.000
    16 C     -10.792712     3.122075    -2.792275 C          1 UNL1 0.000
    17 C      -9.862096     2.087061    -2.675545 C          1 UNL1 0.000
    18 C      -9.937651    -1.008543    -1.558899 C          1 UNL1 0.000
    19 C     -10.887308    -2.032974    -1.543767 C          1 UNL1 0.000
    20 C     -10.520127    -3.324563    -1.898212 C          1 UNL1 0.000
    21 C      -9.194259    -3.601064    -2.228136 C          1 UNL1 0.000
    22 C      -4.072871     0.513964    -1.919630 C          1 UNL1 0.000
    23 C      -3.397731     0.338353    -3.127328 C          1 UNL1 0.000
    24 C      -2.004586     0.310546    -3.126606 C          1 UNL1 0.000
    25 C      -1.285682     0.419910    -1.924476 C          1 UNL1 0.000
    26 C      -1.980089     0.582286    -0.701341 C          1 UNL1 0.000
    27 C      -3.382825     0.649715    -0.711233 C          1 UNL1 0.000
    28 C       0.113400     0.355567    -1.914993 C          1 UNL1 0.000
    29 C       0.821039     0.420107    -0.712638 C          1 UNL1 0.000
    30 C       0.152425     0.559409     0.510816 C          1 UNL1 0.000
    31 C      -1.249308     0.652149     0.499099 C          1 UNL1 0.000
    32 H      -6.606055     4.972210    -1.250174 H          1 UNL1 0.000
    33 H      -4.872808     3.234896    -1.266268 H          1 UNL1 0.000
    34 H      -4.849819    -2.211143    -2.488146 H          1 UNL1 0.000
    35 H      -6.590958    -3.929097    -2.665766 H          1 UNL1 0.000
    36 H      -8.893850     5.698955    -1.695115 H          1 UNL1 0.000
    37 H     -11.167750     5.219415    -2.500727 H          1 UNL1 0.000
    38 H     -11.779777     2.919700    -3.199782 H          1 UNL1 0.000
    39 H     -10.141553     1.111570    -3.060641 H          1 UNL1 0.000
    40 H     -10.243526    -0.031059    -1.199761 H          1 UNL1 0.000
    41 H     -11.908548    -1.820524    -1.238510 H          1 UNL1 0.000
    42 H     -11.255697    -4.124301    -1.885456 H          1 UNL1 0.000
    43 H      -8.917435    -4.628009    -2.457382 H          1 UNL1 0.000
    44 H      -3.940535     0.241964    -4.064796 H          1 UNL1 0.000
    45 H      -1.480932     0.189057    -4.072352 H          1 UNL1 0.000
    46 H      -3.933237     0.764618     0.220368 H          1 UNL1 0.000
    47 H       0.667844     0.243004    -2.843885 H          1 UNL1 0.000
    48 H       1.907669     0.361692    -0.736292 H          1 UNL1 0.000
    49 H      -1.779027     0.753768     1.445356 H          1 UNL1 0.000
    50 C       0.906808     0.594985     1.770013 C          1 UNL1 0.000
    51 C       1.657481    -0.517824     2.186514 C          1 UNL1 0.000
    52 C       2.402408    -0.481579     3.368613 C          1 UNL1 0.000
    53 C       2.415321     0.677825     4.139907 C          1 UNL1 0.000
    54 C       1.647086     1.776827     3.765889 C          1 UNL1 0.000
    55 C       0.903650     1.738738     2.583143 C          1 UNL1 0.000
    56 O       3.116447     0.770623     5.310925 O          1 UNL1 0.000
    57 C       4.515316     0.575714     5.105063 C          1 UNL1 0.000
    58 H       1.654455    -1.429722     1.592227 H          1 UNL1 0.000
    59 H       2.950925    -1.364352     3.681811 H          1 UNL1 0.000
    60 H       1.639006     2.668991     4.385505 H          1 UNL1 0.000
    61 H       0.330087     2.615756     2.290915 H          1 UNL1 0.000
    62 H       5.031389     0.862262     6.026365 H          1 UNL1 0.000
    63 H       4.891711     1.212693     4.296191 H          1 UNL1 0.000
    64 H       4.745531    -0.475581     4.905671 H          1 UNL1 0.000
@<TRIPOS>BOND
     1      1      2   2
     2      2      3   1
     3      3      4   2
     4      4      5   1
     5      5      6   2
     6      6      1   1
     7      4      7   1
     8      7      8   1
     9      8      9   2
    10      9     10   1
    11     10     11   2
    12     11     12   1
    13     12     13   2
    14     13      8   1
    15     13      5   1
    16      1     14   1
    17     14     15   2
    18     15     16   1
    19     16     17   2
    20     17      6   1
    21     12     18   1
    22     18     19   2
    23     19     20   1
    24     20     21   2
    25     21     11   1
    26     22     23   2
    27     23     24   1
    28     24     25   2
    29     25     26   1
    30     26     27   2
    31     27     22   1
    32     25     28   1
    33     28     29   2
    34     29     30   1
    35     30     31   2
    36     31     26   1
    37      7     22   1
    38      2     32   1
    39      3     33   1
    40      9     34   1
    41     10     35   1
    42     14     36   1
    43     15     37   1
    44     16     38   1
    45     17     39   1
    46     18     40   1
    47     19     41   1
    48     20     42   1
    49     21     43   1
    50     23     44   1
    51     24     45   1
    52     27     46   1
    53     28     47   1
    54     29     48   1
    55     31     49   1
    56     50     51   2
    57     51     52   1
    58     52     53   2
    59     53     54   1
    60     54     55   2
    61     55     50   1
    62     56     57   1
    63     53     56   1
    64     51     58   1
    65     52     59   1
    66     54     60   1
    67     55     61   1
    68     57     62   1
    69     57     63   1
    70     57     64   1
    71     30     50   1
