# Produced with molli package
@<TRIPOS>MOLECULE
D_5_R
61 68 0 0 0
SMALL
USER_CHARGES

@<TRIPOS>ATOM
     1 C      -8.185304     3.652601    -2.091444 C          1 UNL1 0.000
     2 C      -6.839694     3.948498    -2.298625 C          1 UNL1 0.000
     3 C      -5.865418     2.958013    -2.219222 C          1 UNL1 0.000
     4 C      -6.273866     1.628746    -2.021668 C          1 UNL1 0.000
     5 C      -7.619205     1.251776    -1.919947 C          1 UNL1 0.000
     6 C      -8.592678     2.314241    -1.841372 C          1 UNL1 0.000
     7 N      -5.509842     0.491897    -1.847553 N          1 UNL1 0.000
     8 C      -6.316397    -0.624065    -1.738368 C          1 UNL1 0.000
     9 C      -5.962037    -1.967865    -1.534245 C          1 UNL1 0.000
    10 C      -6.965613    -2.932430    -1.560084 C          1 UNL1 0.000
    11 C      -8.281479    -2.595235    -1.870910 C          1 UNL1 0.000
    12 C      -8.632205    -1.240335    -2.117663 C          1 UNL1 0.000
    13 C      -7.639254    -0.207144    -1.940554 C          1 UNL1 0.000
    14 C      -9.136727     4.685532    -2.092303 C          1 UNL1 0.000
    15 C     -10.473998     4.428739    -1.794991 C          1 UNL1 0.000
    16 C     -10.869100     3.141337    -1.456556 C          1 UNL1 0.000
    17 C      -9.936455     2.101163    -1.462103 C          1 UNL1 0.000
    18 C      -9.934660    -0.982158    -2.600189 C          1 UNL1 0.000
    19 C     -10.888999    -1.996152    -2.714609 C          1 UNL1 0.000
    20 C     -10.554977    -3.302597    -2.384749 C          1 UNL1 0.000
    21 C      -9.254524    -3.602414    -1.982461 C          1 UNL1 0.000
    22 C      -4.098847     0.465077    -1.863612 C          1 UNL1 0.000
    23 C      -3.440681     0.465770    -3.092603 C          1 UNL1 0.000
    24 C      -2.047940     0.435008    -3.111903 C          1 UNL1 0.000
    25 C      -1.313214     0.416002    -1.914169 C          1 UNL1 0.000
    26 C      -1.991717     0.432633    -0.670875 C          1 UNL1 0.000
    27 C      -3.395857     0.448697    -0.655595 C          1 UNL1 0.000
    28 C       0.086882     0.384952    -1.930486 C          1 UNL1 0.000
    29 C       0.813491     0.367627    -0.737669 C          1 UNL1 0.000
    30 C       0.162360     0.390623     0.504128 C          1 UNL1 0.000
    31 C      -1.241998     0.433579     0.520019 C          1 UNL1 0.000
    32 H      -6.520354     4.975126    -2.467446 H          1 UNL1 0.000
    33 H      -4.813846     3.218407    -2.307005 H          1 UNL1 0.000
    34 H      -4.928456    -2.260042    -1.368842 H          1 UNL1 0.000
    35 H      -6.688374    -3.971608    -1.393242 H          1 UNL1 0.000
    36 H      -8.837856     5.709329    -2.307596 H          1 UNL1 0.000
    37 H     -11.196738     5.240147    -1.794191 H          1 UNL1 0.000
    38 H     -11.899659     2.943726    -1.173534 H          1 UNL1 0.000
    39 H     -10.264380     1.127399    -1.113062 H          1 UNL1 0.000
    40 H     -10.209410     0.007631    -2.948937 H          1 UNL1 0.000
    41 H     -11.886679    -1.762765    -3.077254 H          1 UNL1 0.000
    42 H     -11.294006    -4.094290    -2.473489 H          1 UNL1 0.000
    43 H      -8.999782    -4.639872    -1.775970 H          1 UNL1 0.000
    44 H      -3.996830     0.478735    -4.026961 H          1 UNL1 0.000
    45 H      -1.536389     0.426962    -4.072097 H          1 UNL1 0.000
    46 H      -3.935730     0.461468     0.289120 H          1 UNL1 0.000
    47 H       0.627672     0.378571    -2.874461 H          1 UNL1 0.000
    48 H       1.900789     0.356643    -0.785499 H          1 UNL1 0.000
    49 H      -1.754194     0.466237     1.481156 H          1 UNL1 0.000
    50 C       0.931951     0.369340     1.751751 C          1 UNL1 0.000
    51 N       0.806902     1.465304     2.546265 N          1 UNL1 0.000
    52 C       1.543132     1.504532     3.684003 C          1 UNL1 0.000
    53 C       2.394207     0.480363     4.056658 C          1 UNL1 0.000
    54 C       2.510806    -0.652412     3.256643 C          1 UNL1 0.000
    55 C       1.762021    -0.706196     2.082493 C          1 UNL1 0.000
    56 N       3.163387     0.606075     5.270672 N          1 UNL1 0.000
    57 O       4.365515     0.312119     5.209512 O          1 UNL1 0.000
    58 O       2.567755     0.994330     6.282237 O          1 UNL1 0.000
    59 H       1.427627     2.408622     4.276132 H          1 UNL1 0.000
    60 H       3.163332    -1.476878     3.531325 H          1 UNL1 0.000
    61 H       1.821872    -1.576023     1.434248 H          1 UNL1 0.000
@<TRIPOS>BOND
     1      1      2   2
     2      2      3   1
     3      3      4   2
     4      4      5   1
     5      5      6   2
     6      6      1   1
     7      4      7   1
     8      7      8   1
     9      8      9   2
    10      9     10   1
    11     10     11   2
    12     11     12   1
    13     12     13   2
    14     13      8   1
    15     13      5   1
    16      1     14   1
    17     14     15   2
    18     15     16   1
    19     16     17   2
    20     17      6   1
    21     12     18   1
    22     18     19   2
    23     19     20   1
    24     20     21   2
    25     21     11   1
    26     22     23   2
    27     23     24   1
    28     24     25   2
    29     25     26   1
    30     26     27   2
    31     27     22   1
    32     25     28   1
    33     28     29   2
    34     29     30   1
    35     30     31   2
    36     31     26   1
    37      7     22   1
    38      2     32   1
    39      3     33   1
    40      9     34   1
    41     10     35   1
    42     14     36   1
    43     15     37   1
    44     16     38   1
    45     17     39   1
    46     18     40   1
    47     19     41   1
    48     20     42   1
    49     21     43   1
    50     23     44   1
    51     24     45   1
    52     27     46   1
    53     28     47   1
    54     29     48   1
    55     31     49   1
    56     50     51   2
    57     51     52   1
    58     52     53   2
    59     53     54   1
    60     54     55   2
    61     55     50   1
    62     56     57   2
    63     56     58   1
    64     53     56   1
    65     52     59   1
    66     54     60   1
    67     55     61   1
    68     30     50   1
