# Produced with molli package
@<TRIPOS>MOLECULE
D_5_N
57 64 0 0 0
SMALL
USER_CHARGES

@<TRIPOS>ATOM
     1 C      -8.305408     3.630891    -2.227411 C          1 UNL1 0.000
     2 C      -6.972795     3.948677    -2.481469 C          1 UNL1 0.000
     3 C      -5.978196     2.976194    -2.425902 C          1 UNL1 0.000
     4 C      -6.353778     1.641552    -2.197888 C          1 UNL1 0.000
     5 C      -7.688535     1.242914    -2.052576 C          1 UNL1 0.000
     6 C      -8.680477     2.286407    -1.961745 C          1 UNL1 0.000
     7 N      -5.564253     0.523287    -2.003349 N          1 UNL1 0.000
     8 C      -6.350227    -0.599592    -1.827035 C          1 UNL1 0.000
     9 C      -5.975029    -1.929036    -1.571887 C          1 UNL1 0.000
    10 C      -6.963726    -2.909990    -1.563453 C          1 UNL1 0.000
    11 C      -8.283544    -2.606347    -1.893375 C          1 UNL1 0.000
    12 C      -8.655464    -1.266477    -2.183351 C          1 UNL1 0.000
    13 C      -7.680634    -0.213681    -2.039392 C          1 UNL1 0.000
    14 C      -9.273547     4.647707    -2.191190 C          1 UNL1 0.000
    15 C     -10.594565     4.367998    -1.845083 C          1 UNL1 0.000
    16 C     -10.957198     3.072391    -1.501198 C          1 UNL1 0.000
    17 C     -10.008509     2.047761    -1.543467 C          1 UNL1 0.000
    18 C      -9.958529    -1.040098    -2.679793 C          1 UNL1 0.000
    19 C     -10.893531    -2.073241    -2.777010 C          1 UNL1 0.000
    20 C     -10.540072    -3.364746    -2.409052 C          1 UNL1 0.000
    21 C      -9.239367    -3.631745    -1.983818 C          1 UNL1 0.000
    22 C      -4.151824     0.529140    -2.009570 C          1 UNL1 0.000
    23 C      -3.480210     0.681878    -3.222117 C          1 UNL1 0.000
    24 C      -2.086545     0.714668    -3.224649 C          1 UNL1 0.000
    25 C      -1.363580     0.631016    -2.022448 C          1 UNL1 0.000
    26 C      -2.057658     0.488639    -0.794894 C          1 UNL1 0.000
    27 C      -3.459531     0.419377    -0.800295 C          1 UNL1 0.000
    28 C       0.037328     0.703155    -2.015617 C          1 UNL1 0.000
    29 C       0.748005     0.664298    -0.814094 C          1 UNL1 0.000
    30 C       0.068705     0.537366     0.399438 C          1 UNL1 0.000
    31 C      -1.328669     0.440852     0.405454 C          1 UNL1 0.000
    32 H      -6.677482     4.980127    -2.664299 H          1 UNL1 0.000
    33 H      -4.935035     3.258048    -2.541507 H          1 UNL1 0.000
    34 H      -4.936831    -2.200754    -1.401205 H          1 UNL1 0.000
    35 H      -6.670125    -3.938087    -1.359843 H          1 UNL1 0.000
    36 H      -8.999414     5.677362    -2.411395 H          1 UNL1 0.000
    37 H     -11.329326     5.167883    -1.811465 H          1 UNL1 0.000
    38 H     -11.973881     2.856633    -1.183261 H          1 UNL1 0.000
    39 H     -10.309700     1.066681    -1.190575 H          1 UNL1 0.000
    40 H     -10.246522    -0.062349    -3.052587 H          1 UNL1 0.000
    41 H     -11.891017    -1.867329    -3.156399 H          1 UNL1 0.000
    42 H     -11.264222    -4.171385    -2.485257 H          1 UNL1 0.000
    43 H      -8.969681    -4.658564    -1.745708 H          1 UNL1 0.000
    44 H      -4.025836     0.759363    -4.159688 H          1 UNL1 0.000
    45 H      -1.565601     0.820377    -4.173973 H          1 UNL1 0.000
    46 H      -4.008709     0.320807     0.134044 H          1 UNL1 0.000
    47 H       0.588915     0.803910    -2.947848 H          1 UNL1 0.000
    48 H       1.833369     0.732715    -0.834063 H          1 UNL1 0.000
    49 H      -1.854168     0.355695     1.354914 H          1 UNL1 0.000
    50 C       0.813054     0.539689     1.647643 C          1 UNL1 0.000
    51 C       0.833721    -0.560478     2.481470 C          1 UNL1 0.000
    52 S       1.790071    -0.299914     3.878039 S          1 UNL1 0.000
    53 C       2.185745     1.287408     3.378989 C          1 UNL1 0.000
    54 C       1.606220     1.608731     2.171186 C          1 UNL1 0.000
    55 H       0.341383    -1.513358     2.340757 H          1 UNL1 0.000
    56 H       2.823468     1.907934     3.993534 H          1 UNL1 0.000
    57 H       1.735096     2.570872     1.689860 H          1 UNL1 0.000
@<TRIPOS>BOND
     1      1      2   2
     2      2      3   1
     3      3      4   2
     4      4      5   1
     5      5      6   2
     6      6      1   1
     7      4      7   1
     8      7      8   1
     9      8      9   2
    10      9     10   1
    11     10     11   2
    12     11     12   1
    13     12     13   2
    14     13      8   1
    15     13      5   1
    16      1     14   1
    17     14     15   2
    18     15     16   1
    19     16     17   2
    20     17      6   1
    21     12     18   1
    22     18     19   2
    23     19     20   1
    24     20     21   2
    25     21     11   1
    26     22     23   2
    27     23     24   1
    28     24     25   2
    29     25     26   1
    30     26     27   2
    31     27     22   1
    32     25     28   1
    33     28     29   2
    34     29     30   1
    35     30     31   2
    36     31     26   1
    37      7     22   1
    38      2     32   1
    39      3     33   1
    40      9     34   1
    41     10     35   1
    42     14     36   1
    43     15     37   1
    44     16     38   1
    45     17     39   1
    46     18     40   1
    47     19     41   1
    48     20     42   1
    49     21     43   1
    50     23     44   1
    51     24     45   1
    52     27     46   1
    53     28     47   1
    54     29     48   1
    55     31     49   1
    56     50     51   2
    57     51     52   1
    58     52     53   1
    59     53     54   2
    60     54     50   1
    61     51     55   1
    62     53     56   1
    63     54     57   1
    64     30     50   1
