# Produced with molli package
@<TRIPOS>MOLECULE
D_6_O
59 66 0 0 0
SMALL
USER_CHARGES

@<TRIPOS>ATOM
     1 C      -6.742272     3.736571     0.320495 C          1 UNL1 0.000
     2 C      -5.424415     4.050766    -0.005927 C          1 UNL1 0.000
     3 C      -4.436328     3.070649    -0.032399 C          1 UNL1 0.000
     4 C      -4.811188     1.734414     0.182635 C          1 UNL1 0.000
     5 C      -6.138620     1.339678     0.396071 C          1 UNL1 0.000
     6 C      -7.111843     2.389234     0.580547 C          1 UNL1 0.000
     7 N      -4.022879     0.603606     0.272886 N          1 UNL1 0.000
     8 C      -4.805706    -0.521308     0.448213 C          1 UNL1 0.000
     9 C      -4.418779    -1.859820     0.625190 C          1 UNL1 0.000
    10 C      -5.409233    -2.834519     0.698310 C          1 UNL1 0.000
    11 C      -6.751009    -2.512613     0.505823 C          1 UNL1 0.000
    12 C      -7.137547    -1.163395     0.281467 C          1 UNL1 0.000
    13 C      -6.144914    -0.119097     0.365538 C          1 UNL1 0.000
    14 C      -7.699151     4.758774     0.432081 C          1 UNL1 0.000
    15 C      -8.999649     4.481561     0.850354 C          1 UNL1 0.000
    16 C      -9.349764     3.183011     1.195311 C          1 UNL1 0.000
    17 C      -8.412637     2.153524     1.078301 C          1 UNL1 0.000
    18 C      -8.480583    -0.921611    -0.083007 C          1 UNL1 0.000
    19 C      -9.429944    -1.946451    -0.102079 C          1 UNL1 0.000
    20 C      -9.053591    -3.246352     0.208660 C          1 UNL1 0.000
    21 C      -7.719072    -3.529948     0.493574 C          1 UNL1 0.000
    22 C      -2.607482     0.598098     0.239341 C          1 UNL1 0.000
    23 C      -1.949947     0.601979     1.471610 C          1 UNL1 0.000
    24 C      -0.562274     0.580620     1.495042 C          1 UNL1 0.000
    25 C       0.181888     0.548561     0.300498 C          1 UNL1 0.000
    26 C      -0.490867     0.555741    -0.959327 C          1 UNL1 0.000
    27 C      -1.911916     0.575286    -0.995982 C          1 UNL1 0.000
    28 C       0.205581     0.538505    -2.191999 C          1 UNL1 0.000
    29 C      -0.456689     0.527131    -3.419669 C          1 UNL1 0.000
    30 C      -1.841267     0.534100    -3.452350 C          1 UNL1 0.000
    31 C      -2.558868     0.558589    -2.257576 C          1 UNL1 0.000
    32 H      -5.132270     5.083413    -0.187393 H          1 UNL1 0.000
    33 H      -3.400207     3.343462    -0.217014 H          1 UNL1 0.000
    34 H      -3.371186    -2.139426     0.697914 H          1 UNL1 0.000
    35 H      -5.106364    -3.869020     0.848141 H          1 UNL1 0.000
    36 H      -7.430984     5.790228     0.212773 H          1 UNL1 0.000
    37 H      -9.725695     5.285099     0.939519 H          1 UNL1 0.000
    38 H     -10.346760     2.968128     1.570881 H          1 UNL1 0.000
    39 H      -8.697938     1.169651     1.435793 H          1 UNL1 0.000
    40 H      -8.795632     0.063376    -0.411452 H          1 UNL1 0.000
    41 H     -10.458845    -1.726855    -0.374797 H          1 UNL1 0.000
    42 H      -9.789188    -4.046016     0.195789 H          1 UNL1 0.000
    43 H      -7.435565    -4.562412     0.687142 H          1 UNL1 0.000
    44 H      -2.506420     0.628346     2.405766 H          1 UNL1 0.000
    45 H      -0.046439     0.593442     2.453899 H          1 UNL1 0.000
    46 H       1.294737     0.544694    -2.208722 H          1 UNL1 0.000
    47 H       0.113497     0.516098    -4.344558 H          1 UNL1 0.000
    48 H      -2.367239     0.524642    -4.403171 H          1 UNL1 0.000
    49 H      -3.645744     0.564282    -2.325871 H          1 UNL1 0.000
    50 C       1.646432     0.483581     0.405339 C          1 UNL1 0.000
    51 N       2.296882     1.671733     0.371417 N          1 UNL1 0.000
    52 C       3.644506     1.641650     0.460608 C          1 UNL1 0.000
    53 C       4.384104     0.477524     0.585767 C          1 UNL1 0.000
    54 C       3.702485    -0.732550     0.624216 C          1 UNL1 0.000
    55 C       2.313307    -0.733689     0.534229 C          1 UNL1 0.000
    56 H       4.130548     2.612554     0.426594 H          1 UNL1 0.000
    57 H       5.465695     0.513895     0.651965 H          1 UNL1 0.000
    58 H       4.246251    -1.667709     0.721973 H          1 UNL1 0.000
    59 H       1.760553    -1.667362     0.558367 H          1 UNL1 0.000
@<TRIPOS>BOND
     1      1      2   2
     2      2      3   1
     3      3      4   2
     4      4      5   1
     5      5      6   2
     6      6      1   1
     7      4      7   1
     8      7      8   1
     9      8      9   2
    10      9     10   1
    11     10     11   2
    12     11     12   1
    13     12     13   2
    14     13      8   1
    15     13      5   1
    16      1     14   1
    17     14     15   2
    18     15     16   1
    19     16     17   2
    20     17      6   1
    21     12     18   1
    22     18     19   2
    23     19     20   1
    24     20     21   2
    25     21     11   1
    26     22     23   2
    27     23     24   1
    28     24     25   2
    29     25     26   1
    30     26     27   2
    31     27     22   1
    32     26     28   1
    33     28     29   2
    34     29     30   1
    35     30     31   2
    36     31     27   1
    37      7     22   1
    38      2     32   1
    39      3     33   1
    40      9     34   1
    41     10     35   1
    42     14     36   1
    43     15     37   1
    44     16     38   1
    45     17     39   1
    46     18     40   1
    47     19     41   1
    48     20     42   1
    49     21     43   1
    50     23     44   1
    51     24     45   1
    52     28     46   1
    53     29     47   1
    54     30     48   1
    55     31     49   1
    56     50     51   2
    57     51     52   1
    58     52     53   2
    59     53     54   1
    60     54     55   2
    61     55     50   1
    62     52     56   1
    63     53     57   1
    64     54     58   1
    65     55     59   1
    66     25     50   1
