# Produced with molli package
@<TRIPOS>MOLECULE
D_6_N
57 64 0 0 0
SMALL
USER_CHARGES

@<TRIPOS>ATOM
     1 C      -6.805641     3.666043     0.321025 C          1 UNL1 0.000
     2 C      -5.469529     3.980432     0.084939 C          1 UNL1 0.000
     3 C      -4.481735     3.002256     0.134299 C          1 UNL1 0.000
     4 C      -4.867197     1.667418     0.340315 C          1 UNL1 0.000
     5 C      -6.203888     1.270938     0.481107 C          1 UNL1 0.000
     6 C      -7.190794     2.321459     0.577006 C          1 UNL1 0.000
     7 N      -4.080844     0.539927     0.478243 N          1 UNL1 0.000
     8 C      -4.866645    -0.582275     0.652826 C          1 UNL1 0.000
     9 C      -4.482935    -1.913502     0.883073 C          1 UNL1 0.000
    10 C      -5.470611    -2.892301     0.927574 C          1 UNL1 0.000
    11 C      -6.800702    -2.584249     0.651764 C          1 UNL1 0.000
    12 C      -7.181618    -1.243680     0.370820 C          1 UNL1 0.000
    13 C      -6.201555    -0.189644     0.486383 C          1 UNL1 0.000
    14 C      -7.768055     4.688595     0.342537 C          1 UNL1 0.000
    15 C      -9.096609     4.416091     0.662388 C          1 UNL1 0.000
    16 C      -9.470584     3.123088     1.002421 C          1 UNL1 0.000
    17 C      -8.525569     2.093834     0.979353 C          1 UNL1 0.000
    18 C      -8.502144    -1.023623    -0.079440 C          1 UNL1 0.000
    19 C      -9.442086    -2.056505    -0.126983 C          1 UNL1 0.000
    20 C      -9.076545    -3.344628     0.240158 C          1 UNL1 0.000
    21 C      -7.759349    -3.609611     0.609868 C          1 UNL1 0.000
    22 C      -2.665233     0.534658     0.446824 C          1 UNL1 0.000
    23 C      -2.005257     0.520944     1.679287 C          1 UNL1 0.000
    24 C      -0.617980     0.532922     1.701180 C          1 UNL1 0.000
    25 C       0.109043     0.553957     0.500566 C          1 UNL1 0.000
    26 C      -0.552682     0.556151    -0.762108 C          1 UNL1 0.000
    27 C      -1.971842     0.546190    -0.792963 C          1 UNL1 0.000
    28 C       0.142516     0.566156    -1.997360 C          1 UNL1 0.000
    29 C      -0.523702     0.555830    -3.222967 C          1 UNL1 0.000
    30 C      -1.907888     0.536632    -3.250952 C          1 UNL1 0.000
    31 C      -2.621930     0.531902    -2.053649 C          1 UNL1 0.000
    32 H      -5.167393     5.011440    -0.089133 H          1 UNL1 0.000
    33 H      -3.436807     3.275716     0.012436 H          1 UNL1 0.000
    34 H      -3.439347    -2.185734     1.016568 H          1 UNL1 0.000
    35 H      -5.170772    -3.920869     1.119052 H          1 UNL1 0.000
    36 H      -7.484637     5.716633     0.126160 H          1 UNL1 0.000
    37 H      -9.828320     5.219275     0.678879 H          1 UNL1 0.000
    38 H     -10.494116     2.912499     1.301280 H          1 UNL1 0.000
    39 H      -8.837628     1.117358     1.333837 H          1 UNL1 0.000
    40 H      -8.803365    -0.051483    -0.455221 H          1 UNL1 0.000
    41 H     -10.454334    -1.852947    -0.466371 H          1 UNL1 0.000
    42 H      -9.804594    -4.150541     0.205077 H          1 UNL1 0.000
    43 H      -7.480573    -4.634549     0.845947 H          1 UNL1 0.000
    44 H      -2.561409     0.512589     2.614171 H          1 UNL1 0.000
    45 H      -0.099047     0.526361     2.657858 H          1 UNL1 0.000
    46 H       1.230903     0.579950    -2.017670 H          1 UNL1 0.000
    47 H       0.042907     0.559807    -4.150322 H          1 UNL1 0.000
    48 H      -2.437610     0.523490    -4.199890 H          1 UNL1 0.000
    49 H      -3.708631     0.510579    -2.119987 H          1 UNL1 0.000
    50 C       1.563678     0.555787     0.603704 C          1 UNL1 0.000
    51 C       2.267672     1.728911     0.789343 C          1 UNL1 0.000
    52 S       3.956999     1.462128     0.871666 S          1 UNL1 0.000
    53 C       3.757459    -0.224650     0.665910 C          1 UNL1 0.000
    54 C       2.431934    -0.577489     0.537542 C          1 UNL1 0.000
    55 H       1.877254     2.734281     0.875316 H          1 UNL1 0.000
    56 H       4.620883    -0.875457     0.648917 H          1 UNL1 0.000
    57 H       2.099152    -1.599009     0.397462 H          1 UNL1 0.000
@<TRIPOS>BOND
     1      1      2   2
     2      2      3   1
     3      3      4   2
     4      4      5   1
     5      5      6   2
     6      6      1   1
     7      4      7   1
     8      7      8   1
     9      8      9   2
    10      9     10   1
    11     10     11   2
    12     11     12   1
    13     12     13   2
    14     13      8   1
    15     13      5   1
    16      1     14   1
    17     14     15   2
    18     15     16   1
    19     16     17   2
    20     17      6   1
    21     12     18   1
    22     18     19   2
    23     19     20   1
    24     20     21   2
    25     21     11   1
    26     22     23   2
    27     23     24   1
    28     24     25   2
    29     25     26   1
    30     26     27   2
    31     27     22   1
    32     26     28   1
    33     28     29   2
    34     29     30   1
    35     30     31   2
    36     31     27   1
    37      7     22   1
    38      2     32   1
    39      3     33   1
    40      9     34   1
    41     10     35   1
    42     14     36   1
    43     15     37   1
    44     16     38   1
    45     17     39   1
    46     18     40   1
    47     19     41   1
    48     20     42   1
    49     21     43   1
    50     23     44   1
    51     24     45   1
    52     28     46   1
    53     29     47   1
    54     30     48   1
    55     31     49   1
    56     50     51   2
    57     51     52   1
    58     52     53   1
    59     53     54   2
    60     54     50   1
    61     51     55   1
    62     53     56   1
    63     54     57   1
    64     25     50   1
