# Produced with molli package
@<TRIPOS>MOLECULE
D_6_R
61 68 0 0 0
SMALL
USER_CHARGES

@<TRIPOS>ATOM
     1 C      -6.716503     3.674314     0.669044 C          1 UNL1 0.000
     2 C      -5.383336     3.985971     0.927039 C          1 UNL1 0.000
     3 C      -4.393541     3.008807     0.874028 C          1 UNL1 0.000
     4 C      -4.776435     1.675533     0.652607 C          1 UNL1 0.000
     5 C      -6.113465     1.281426     0.510577 C          1 UNL1 0.000
     6 C      -7.098010     2.330965     0.406019 C          1 UNL1 0.000
     7 N      -3.992456     0.554673     0.453335 N          1 UNL1 0.000
     8 C      -4.783815    -0.572227     0.322605 C          1 UNL1 0.000
     9 C      -4.409804    -1.907481     0.096012 C          1 UNL1 0.000
    10 C      -5.401525    -2.883752     0.077734 C          1 UNL1 0.000
    11 C      -6.726624    -2.568952     0.370528 C          1 UNL1 0.000
    12 C      -7.098089    -1.224566     0.643039 C          1 UNL1 0.000
    13 C      -6.114641    -0.176667     0.510082 C          1 UNL1 0.000
    14 C      -7.678063     4.696921     0.624168 C          1 UNL1 0.000
    15 C      -8.998137     4.424687     0.269022 C          1 UNL1 0.000
    16 C      -9.365790     3.130805    -0.075676 C          1 UNL1 0.000
    17 C      -8.423873     2.100346    -0.023207 C          1 UNL1 0.000
    18 C      -8.413204    -0.991060     1.102661 C          1 UNL1 0.000
    19 C      -9.357231    -2.018611     1.173311 C          1 UNL1 0.000
    20 C      -9.001359    -3.313075     0.818698 C          1 UNL1 0.000
    21 C      -7.689913    -3.588934     0.435729 C          1 UNL1 0.000
    22 C      -2.576099     0.558776     0.402269 C          1 UNL1 0.000
    23 C      -1.899258     0.681892     1.618256 C          1 UNL1 0.000
    24 C      -0.511161     0.656714     1.624138 C          1 UNL1 0.000
    25 C       0.215656     0.518008     0.426701 C          1 UNL1 0.000
    26 C      -0.474951     0.430335    -0.820808 C          1 UNL1 0.000
    27 C      -1.895617     0.443900    -0.838063 C          1 UNL1 0.000
    28 C       0.204571     0.343432    -2.061096 C          1 UNL1 0.000
    29 C      -0.474250     0.269864    -3.277586 C          1 UNL1 0.000
    30 C      -1.858155     0.283861    -3.292030 C          1 UNL1 0.000
    31 C      -2.558506     0.372792    -2.090340 C          1 UNL1 0.000
    32 H      -5.082789     5.016502     1.106837 H          1 UNL1 0.000
    33 H      -3.348745     3.286312     0.986686 H          1 UNL1 0.000
    34 H      -3.370884    -2.183658    -0.063260 H          1 UNL1 0.000
    35 H      -5.108977    -3.914540    -0.112998 H          1 UNL1 0.000
    36 H      -7.398902     5.725458     0.843474 H          1 UNL1 0.000
    37 H      -9.727484     5.229161     0.227891 H          1 UNL1 0.000
    38 H     -10.380927     2.920979    -0.402376 H          1 UNL1 0.000
    39 H      -8.727881     1.121350    -0.379011 H          1 UNL1 0.000
    40 H      -8.706816    -0.011265     1.464996 H          1 UNL1 0.000
    41 H     -10.364952    -1.805680     1.520416 H          1 UNL1 0.000
    42 H      -9.732863    -4.114867     0.872358 H          1 UNL1 0.000
    43 H      -7.419376    -4.617786     0.207369 H          1 UNL1 0.000
    44 H      -2.441776     0.777732     2.556395 H          1 UNL1 0.000
    45 H       0.016972     0.744929     2.572400 H          1 UNL1 0.000
    46 H       1.292352     0.355911    -2.097789 H          1 UNL1 0.000
    47 H       0.082176     0.215760    -4.209516 H          1 UNL1 0.000
    48 H      -2.398166     0.238851    -4.234128 H          1 UNL1 0.000
    49 H      -3.645559     0.401149    -2.148029 H          1 UNL1 0.000
    50 C       1.680813     0.457727     0.513429 C          1 UNL1 0.000
    51 N       2.323496     1.653122     0.533845 N          1 UNL1 0.000
    52 C       3.679077     1.637756     0.585984 C          1 UNL1 0.000
    53 C       4.420136     0.468149     0.628884 C          1 UNL1 0.000
    54 C       3.753976    -0.758029     0.621951 C          1 UNL1 0.000
    55 C       2.360435    -0.760838     0.562699 C          1 UNL1 0.000
    56 N       5.872250     0.531735     0.676446 N          1 UNL1 0.000
    57 O       6.408320     1.627129     0.458481 O          1 UNL1 0.000
    58 O       6.483818    -0.515260     0.928495 O          1 UNL1 0.000
    59 H       4.139499     2.622867     0.591833 H          1 UNL1 0.000
    60 H       4.294354    -1.701048     0.654527 H          1 UNL1 0.000
    61 H       1.812248    -1.698840     0.546778 H          1 UNL1 0.000
@<TRIPOS>BOND
     1      1      2   2
     2      2      3   1
     3      3      4   2
     4      4      5   1
     5      5      6   2
     6      6      1   1
     7      4      7   1
     8      7      8   1
     9      8      9   2
    10      9     10   1
    11     10     11   2
    12     11     12   1
    13     12     13   2
    14     13      8   1
    15     13      5   1
    16      1     14   1
    17     14     15   2
    18     15     16   1
    19     16     17   2
    20     17      6   1
    21     12     18   1
    22     18     19   2
    23     19     20   1
    24     20     21   2
    25     21     11   1
    26     22     23   2
    27     23     24   1
    28     24     25   2
    29     25     26   1
    30     26     27   2
    31     27     22   1
    32     26     28   1
    33     28     29   2
    34     29     30   1
    35     30     31   2
    36     31     27   1
    37      7     22   1
    38      2     32   1
    39      3     33   1
    40      9     34   1
    41     10     35   1
    42     14     36   1
    43     15     37   1
    44     16     38   1
    45     17     39   1
    46     18     40   1
    47     19     41   1
    48     20     42   1
    49     21     43   1
    50     23     44   1
    51     24     45   1
    52     28     46   1
    53     29     47   1
    54     30     48   1
    55     31     49   1
    56     50     51   2
    57     51     52   1
    58     52     53   2
    59     53     54   1
    60     54     55   2
    61     55     50   1
    62     56     57   2
    63     56     58   1
    64     53     56   1
    65     52     59   1
    66     54     60   1
    67     55     61   1
    68     25     50   1
