# Produced with molli package
@<TRIPOS>MOLECULE
D_6_S
65 72 0 0 0
SMALL
USER_CHARGES

@<TRIPOS>ATOM
     1 C      -6.745000     3.671321     0.678324 C          1 UNL1 0.000
     2 C      -5.403859     3.995933     0.865541 C          1 UNL1 0.000
     3 C      -4.411140     3.024283     0.788820 C          1 UNL1 0.000
     4 C      -4.792613     1.684088     0.611925 C          1 UNL1 0.000
     5 C      -6.130990     1.278621     0.505096 C          1 UNL1 0.000
     6 C      -7.127145     2.324879     0.429702 C          1 UNL1 0.000
     7 N      -4.001190     0.563405     0.447611 N          1 UNL1 0.000
     8 C      -4.783569    -0.570049     0.332987 C          1 UNL1 0.000
     9 C      -4.391658    -1.903031     0.126096 C          1 UNL1 0.000
    10 C      -5.373878    -2.886333     0.074091 C          1 UNL1 0.000
    11 C      -6.710517    -2.581359     0.317106 C          1 UNL1 0.000
    12 C      -7.099269    -1.243950     0.601806 C          1 UNL1 0.000
    13 C      -6.121107    -0.183825     0.498090 C          1 UNL1 0.000
    14 C      -7.716060     4.686546     0.697590 C          1 UNL1 0.000
    15 C      -9.053445     4.405989     0.425618 C          1 UNL1 0.000
    16 C      -9.426660     3.114610     0.081429 C          1 UNL1 0.000
    17 C      -8.471107     2.094907     0.059466 C          1 UNL1 0.000
    18 C      -8.430515    -1.036034     1.026088 C          1 UNL1 0.000
    19 C      -9.374515    -2.066573     1.019829 C          1 UNL1 0.000
    20 C      -8.999924    -3.346819     0.636916 C          1 UNL1 0.000
    21 C      -7.670143    -3.607157     0.312820 C          1 UNL1 0.000
    22 C      -2.584267     0.575169     0.393276 C          1 UNL1 0.000
    23 C      -1.901344     0.621680     1.611629 C          1 UNL1 0.000
    24 C      -0.511328     0.611945     1.610557 C          1 UNL1 0.000
    25 C       0.210452     0.564590     0.403844 C          1 UNL1 0.000
    26 C      -0.488234     0.530564    -0.842985 C          1 UNL1 0.000
    27 C      -1.909053     0.533934    -0.853723 C          1 UNL1 0.000
    28 C       0.185526     0.502984    -2.088842 C          1 UNL1 0.000
    29 C      -0.497893     0.481383    -3.304343 C          1 UNL1 0.000
    30 C      -1.881879     0.488768    -3.312066 C          1 UNL1 0.000
    31 C      -2.577650     0.516202    -2.104557 C          1 UNL1 0.000
    32 H      -5.103491     5.030790     1.018842 H          1 UNL1 0.000
    33 H      -3.364674     3.308517     0.861761 H          1 UNL1 0.000
    34 H      -3.346183    -2.169625    -0.005464 H          1 UNL1 0.000
    35 H      -5.067259    -3.913858    -0.111855 H          1 UNL1 0.000
    36 H      -7.433585     5.715173     0.912382 H          1 UNL1 0.000
    37 H      -9.792857     5.201942     0.446894 H          1 UNL1 0.000
    38 H     -10.457760     2.897345    -0.185003 H          1 UNL1 0.000
    39 H      -8.785347     1.123592    -0.305716 H          1 UNL1 0.000
    40 H      -8.741180    -0.073871     1.418368 H          1 UNL1 0.000
    41 H     -10.397802    -1.866437     1.326644 H          1 UNL1 0.000
    42 H      -9.731261    -4.150359     0.624722 H          1 UNL1 0.000
    43 H      -7.384521    -4.627738     0.066328 H          1 UNL1 0.000
    44 H      -2.440758     0.651565     2.555967 H          1 UNL1 0.000
    45 H       0.019074     0.640273     2.561193 H          1 UNL1 0.000
    46 H       1.273399     0.506155    -2.129014 H          1 UNL1 0.000
    47 H       0.055921     0.465387    -4.239183 H          1 UNL1 0.000
    48 H      -2.425260     0.479081    -4.253102 H          1 UNL1 0.000
    49 H      -3.665224     0.532115    -2.155300 H          1 UNL1 0.000
    50 C       1.682989     0.565984     0.468976 C          1 UNL1 0.000
    51 C       2.393357     1.771715     0.523108 C          1 UNL1 0.000
    52 C       3.791945     1.776109     0.516747 C          1 UNL1 0.000
    53 C       4.514541     0.575233     0.458778 C          1 UNL1 0.000
    54 C       3.810474    -0.632552     0.417183 C          1 UNL1 0.000
    55 C       2.408170    -0.634334     0.429878 C          1 UNL1 0.000
    56 C       6.008317     0.664368     0.422173 C          1 UNL1 0.000
    57 C       6.861184    -0.578409     0.452247 C          1 UNL1 0.000
    58 O       6.542460     1.771016     0.345611 O          1 UNL1 0.000
    59 H       1.859875     2.720304     0.547531 H          1 UNL1 0.000
    60 H       4.315332     2.730990     0.543176 H          1 UNL1 0.000
    61 H       4.311965    -1.592316     0.355929 H          1 UNL1 0.000
    62 H       1.877654    -1.584513     0.384466 H          1 UNL1 0.000
    63 H       7.279315    -0.748763    -0.543568 H          1 UNL1 0.000
    64 H       6.327217    -1.469783     0.777036 H          1 UNL1 0.000
    65 H       7.675638    -0.420725     1.166493 H          1 UNL1 0.000
@<TRIPOS>BOND
     1      1      2   2
     2      2      3   1
     3      3      4   2
     4      4      5   1
     5      5      6   2
     6      6      1   1
     7      4      7   1
     8      7      8   1
     9      8      9   2
    10      9     10   1
    11     10     11   2
    12     11     12   1
    13     12     13   2
    14     13      8   1
    15     13      5   1
    16      1     14   1
    17     14     15   2
    18     15     16   1
    19     16     17   2
    20     17      6   1
    21     12     18   1
    22     18     19   2
    23     19     20   1
    24     20     21   2
    25     21     11   1
    26     22     23   2
    27     23     24   1
    28     24     25   2
    29     25     26   1
    30     26     27   2
    31     27     22   1
    32     26     28   1
    33     28     29   2
    34     29     30   1
    35     30     31   2
    36     31     27   1
    37      7     22   1
    38      2     32   1
    39      3     33   1
    40      9     34   1
    41     10     35   1
    42     14     36   1
    43     15     37   1
    44     16     38   1
    45     17     39   1
    46     18     40   1
    47     19     41   1
    48     20     42   1
    49     21     43   1
    50     23     44   1
    51     24     45   1
    52     28     46   1
    53     29     47   1
    54     30     48   1
    55     31     49   1
    56     50     51   2
    57     51     52   1
    58     52     53   2
    59     53     54   1
    60     54     55   2
    61     55     50   1
    62     53     56   1
    63     56     57   1
    64     56     58   2
    65     51     59   1
    66     52     60   1
    67     54     61   1
    68     55     62   1
    69     57     63   1
    70     57     64   1
    71     57     65   1
    72     25     50   1
