# Produced with molli package
@<TRIPOS>MOLECULE
D_6_K
62 69 0 0 0
SMALL
USER_CHARGES

@<TRIPOS>ATOM
     1 C      -6.752961     3.609422     0.439778 C          1 UNL1 0.000
     2 C      -5.423870     3.932048     0.175430 C          1 UNL1 0.000
     3 C      -4.430362     2.958284     0.196116 C          1 UNL1 0.000
     4 C      -4.806221     1.619729     0.394863 C          1 UNL1 0.000
     5 C      -6.138663     1.215821     0.553329 C          1 UNL1 0.000
     6 C      -7.126037     2.260542     0.689745 C          1 UNL1 0.000
     7 N      -4.014302     0.493552     0.505510 N          1 UNL1 0.000
     8 C      -4.793944    -0.637343     0.648544 C          1 UNL1 0.000
     9 C      -4.401074    -1.974106     0.824587 C          1 UNL1 0.000
    10 C      -5.383536    -2.958636     0.848301 C          1 UNL1 0.000
    11 C      -6.720005    -2.646410     0.611026 C          1 UNL1 0.000
    12 C      -7.112386    -1.297637     0.390451 C          1 UNL1 0.000
    13 C      -6.132864    -0.244342     0.520443 C          1 UNL1 0.000
    14 C      -7.719847     4.626445     0.495334 C          1 UNL1 0.000
    15 C      -9.038121     4.343731     0.847821 C          1 UNL1 0.000
    16 C      -9.396692     3.045518     1.185269 C          1 UNL1 0.000
    17 C      -8.448318     2.021034     1.124734 C          1 UNL1 0.000
    18 C      -8.444477    -1.067157    -0.019017 C          1 UNL1 0.000
    19 C      -9.380659    -2.102456    -0.086355 C          1 UNL1 0.000
    20 C      -9.000597    -3.402529     0.218283 C          1 UNL1 0.000
    21 C      -7.674310    -3.674709     0.547763 C          1 UNL1 0.000
    22 C      -2.599191     0.493705     0.465407 C          1 UNL1 0.000
    23 C      -1.931439     0.495102     1.692150 C          1 UNL1 0.000
    24 C      -0.543071     0.496837     1.704496 C          1 UNL1 0.000
    25 C       0.190473     0.491920     0.503568 C          1 UNL1 0.000
    26 C      -0.493537     0.486841    -0.751797 C          1 UNL1 0.000
    27 C      -1.913521     0.485919    -0.775939 C          1 UNL1 0.000
    28 C       0.191246     0.480415    -1.991984 C          1 UNL1 0.000
    29 C      -0.482286     0.463214    -3.213618 C          1 UNL1 0.000
    30 C      -1.866334     0.453715    -3.233411 C          1 UNL1 0.000
    31 C      -2.572232     0.465041    -2.031873 C          1 UNL1 0.000
    32 H      -5.130909     4.965945     0.002870 H          1 UNL1 0.000
    33 H      -3.389502     3.237123     0.054110 H          1 UNL1 0.000
    34 H      -3.354165    -2.245850     0.930181 H          1 UNL1 0.000
    35 H      -5.075907    -3.992423     0.993871 H          1 UNL1 0.000
    36 H      -7.447632     5.657907     0.280926 H          1 UNL1 0.000
    37 H      -9.773143     5.142900     0.891675 H          1 UNL1 0.000
    38 H     -10.410588     2.827125     1.510277 H          1 UNL1 0.000
    39 H      -8.745418     1.038284     1.475559 H          1 UNL1 0.000
    40 H      -8.759970    -0.082815    -0.347822 H          1 UNL1 0.000
    41 H     -10.401626    -1.890791    -0.393172 H          1 UNL1 0.000
    42 H      -9.725238    -4.210574     0.165756 H          1 UNL1 0.000
    43 H      -7.385456    -4.706938     0.734997 H          1 UNL1 0.000
    44 H      -2.481501     0.501259     2.630730 H          1 UNL1 0.000
    45 H      -0.022998     0.500036     2.661225 H          1 UNL1 0.000
    46 H       1.279149     0.486593    -2.022811 H          1 UNL1 0.000
    47 H       0.078563     0.454612    -4.144449 H          1 UNL1 0.000
    48 H      -2.402001     0.436334    -4.178878 H          1 UNL1 0.000
    49 H      -3.659552     0.452994    -2.090990 H          1 UNL1 0.000
    50 C       1.660802     0.485816     0.592483 C          1 UNL1 0.000
    51 C       2.375370    -0.722312     0.522047 C          1 UNL1 0.000
    52 C       3.772200    -0.731854     0.569176 C          1 UNL1 0.000
    53 C       4.463786     0.478681     0.695784 C          1 UNL1 0.000
    54 C       3.770020     1.691528     0.783185 C          1 UNL1 0.000
    55 C       2.373107     1.688836     0.731454 C          1 UNL1 0.000
    56 N       5.930175     0.476861     0.727449 N          1 UNL1 0.000
    57 O       6.511551    -0.567272     0.399942 O          1 UNL1 0.000
    58 O       6.499659     1.520830     1.076617 O          1 UNL1 0.000
    59 H       1.839086    -1.664573     0.416079 H          1 UNL1 0.000
    60 H       4.299347    -1.681373     0.502570 H          1 UNL1 0.000
    61 H       4.295929     2.639087     0.880885 H          1 UNL1 0.000
    62 H       1.835923     2.634796     0.786862 H          1 UNL1 0.000
@<TRIPOS>BOND
     1      1      2   2
     2      2      3   1
     3      3      4   2
     4      4      5   1
     5      5      6   2
     6      6      1   1
     7      4      7   1
     8      7      8   1
     9      8      9   2
    10      9     10   1
    11     10     11   2
    12     11     12   1
    13     12     13   2
    14     13      8   1
    15     13      5   1
    16      1     14   1
    17     14     15   2
    18     15     16   1
    19     16     17   2
    20     17      6   1
    21     12     18   1
    22     18     19   2
    23     19     20   1
    24     20     21   2
    25     21     11   1
    26     22     23   2
    27     23     24   1
    28     24     25   2
    29     25     26   1
    30     26     27   2
    31     27     22   1
    32     26     28   1
    33     28     29   2
    34     29     30   1
    35     30     31   2
    36     31     27   1
    37      7     22   1
    38      2     32   1
    39      3     33   1
    40      9     34   1
    41     10     35   1
    42     14     36   1
    43     15     37   1
    44     16     38   1
    45     17     39   1
    46     18     40   1
    47     19     41   1
    48     20     42   1
    49     21     43   1
    50     23     44   1
    51     24     45   1
    52     28     46   1
    53     29     47   1
    54     30     48   1
    55     31     49   1
    56     50     51   2
    57     51     52   1
    58     52     53   2
    59     53     54   1
    60     54     55   2
    61     55     50   1
    62     56     57   2
    63     56     58   1
    64     53     56   1
    65     51     59   1
    66     52     60   1
    67     54     61   1
    68     55     62   1
    69     25     50   1
