# Produced with molli package
@<TRIPOS>MOLECULE
D_6_M
61 68 0 0 0
SMALL
USER_CHARGES

@<TRIPOS>ATOM
     1 C      -6.704632     3.694521     0.530204 C          1 UNL1 0.000
     2 C      -5.356356     4.004433     0.685625 C          1 UNL1 0.000
     3 C      -4.381379     3.013494     0.643033 C          1 UNL1 0.000
     4 C      -4.787166     1.672739     0.539060 C          1 UNL1 0.000
     5 C      -6.132689     1.285743     0.454529 C          1 UNL1 0.000
     6 C      -7.110920     2.346408     0.335445 C          1 UNL1 0.000
     7 N      -4.013748     0.531606     0.444113 N          1 UNL1 0.000
     8 C      -4.813855    -0.594288     0.403150 C          1 UNL1 0.000
     9 C      -4.440803    -1.944256     0.296101 C          1 UNL1 0.000
    10 C      -5.439306    -2.912505     0.275021 C          1 UNL1 0.000
    11 C      -6.777867    -2.571093     0.449266 C          1 UNL1 0.000
    12 C      -7.148822    -1.214487     0.653719 C          1 UNL1 0.000
    13 C      -6.148236    -0.176877     0.518717 C          1 UNL1 0.000
    14 C      -7.659539     4.725309     0.531609 C          1 UNL1 0.000
    15 C      -9.005736     4.457355     0.293503 C          1 UNL1 0.000
    16 C      -9.402584     3.163062    -0.009129 C          1 UNL1 0.000
    17 C      -8.461726     2.129557    -0.016946 C          1 UNL1 0.000
    18 C      -8.489372    -0.965926     1.023727 C          1 UNL1 0.000
    19 C      -9.456573    -1.974744     1.017371 C          1 UNL1 0.000
    20 C      -9.095889    -3.276407     0.701350 C          1 UNL1 0.000
    21 C      -7.758762    -3.577356     0.451283 C          1 UNL1 0.000
    22 C      -2.595862     0.521597     0.397635 C          1 UNL1 0.000
    23 C      -1.919906     0.601285     1.617893 C          1 UNL1 0.000
    24 C      -0.529941     0.602100     1.624588 C          1 UNL1 0.000
    25 C       0.200202     0.533052     0.423772 C          1 UNL1 0.000
    26 C      -0.490555     0.461223    -0.825229 C          1 UNL1 0.000
    27 C      -1.912266     0.451821    -0.843882 C          1 UNL1 0.000
    28 C       0.191663     0.406430    -2.065410 C          1 UNL1 0.000
    29 C      -0.484314     0.344467    -3.283686 C          1 UNL1 0.000
    30 C      -1.868505     0.335646    -3.299390 C          1 UNL1 0.000
    31 C      -2.572682     0.389812    -2.097289 C          1 UNL1 0.000
    32 H      -5.037288     5.039629     0.790728 H          1 UNL1 0.000
    33 H      -3.329661     3.282333     0.695593 H          1 UNL1 0.000
    34 H      -3.397200    -2.235940     0.211042 H          1 UNL1 0.000
    35 H      -5.146651    -3.954688     0.162081 H          1 UNL1 0.000
    36 H      -7.358072     5.755373     0.710496 H          1 UNL1 0.000
    37 H      -9.733558     5.264014     0.307109 H          1 UNL1 0.000
    38 H     -10.440904     2.953119    -0.252385 H          1 UNL1 0.000
    39 H      -8.794284     1.155157    -0.355902 H          1 UNL1 0.000
    40 H      -8.793110     0.014822     1.371527 H          1 UNL1 0.000
    41 H     -10.487207    -1.739706     1.270196 H          1 UNL1 0.000
    42 H      -9.844854    -4.063448     0.685556 H          1 UNL1 0.000
    43 H      -7.485590    -4.613315     0.261345 H          1 UNL1 0.000
    44 H      -2.464714     0.654813     2.558040 H          1 UNL1 0.000
    45 H      -0.005715     0.657237     2.577514 H          1 UNL1 0.000
    46 H       1.279681     0.416914    -2.099028 H          1 UNL1 0.000
    47 H       0.074963     0.306906    -4.214773 H          1 UNL1 0.000
    48 H      -2.405602     0.290691    -4.243112 H          1 UNL1 0.000
    49 H      -3.660047     0.387863    -2.154546 H          1 UNL1 0.000
    50 C       1.672401     0.543685     0.503419 C          1 UNL1 0.000
    51 C       2.379530     1.756087     0.528390 C          1 UNL1 0.000
    52 C       3.777931     1.768328     0.561200 C          1 UNL1 0.000
    53 C       4.489718     0.565347     0.572969 C          1 UNL1 0.000
    54 C       3.796563    -0.648479     0.561488 C          1 UNL1 0.000
    55 C       2.398113    -0.657764     0.529226 C          1 UNL1 0.000
    56 C       5.924248     0.576502     0.587409 C          1 UNL1 0.000
    57 N       7.083674     0.585638     0.594432 N          1 UNL1 0.000
    58 H       1.839156     2.701180     0.506601 H          1 UNL1 0.000
    59 H       4.303195     2.721792     0.569056 H          1 UNL1 0.000
    60 H       4.336454    -1.593732     0.569578 H          1 UNL1 0.000
    61 H       1.872082    -1.610986     0.509152 H          1 UNL1 0.000
@<TRIPOS>BOND
     1      1      2   2
     2      2      3   1
     3      3      4   2
     4      4      5   1
     5      5      6   2
     6      6      1   1
     7      4      7   1
     8      7      8   1
     9      8      9   2
    10      9     10   1
    11     10     11   2
    12     11     12   1
    13     12     13   2
    14     13      8   1
    15     13      5   1
    16      1     14   1
    17     14     15   2
    18     15     16   1
    19     16     17   2
    20     17      6   1
    21     12     18   1
    22     18     19   2
    23     19     20   1
    24     20     21   2
    25     21     11   1
    26     22     23   2
    27     23     24   1
    28     24     25   2
    29     25     26   1
    30     26     27   2
    31     27     22   1
    32     26     28   1
    33     28     29   2
    34     29     30   1
    35     30     31   2
    36     31     27   1
    37      7     22   1
    38      2     32   1
    39      3     33   1
    40      9     34   1
    41     10     35   1
    42     14     36   1
    43     15     37   1
    44     16     38   1
    45     17     39   1
    46     18     40   1
    47     19     41   1
    48     20     42   1
    49     21     43   1
    50     23     44   1
    51     24     45   1
    52     28     46   1
    53     29     47   1
    54     30     48   1
    55     31     49   1
    56     50     51   2
    57     51     52   1
    58     52     53   2
    59     53     54   1
    60     54     55   2
    61     55     50   1
    62     56     57   3
    63     53     56   1
    64     51     58   1
    65     52     59   1
    66     54     60   1
    67     55     61   1
    68     25     50   1
