# Produced with molli package
@<TRIPOS>MOLECULE
D_6_L
64 72 0 0 0
SMALL
USER_CHARGES

@<TRIPOS>ATOM
     1 C      -6.717296     3.645645     0.423405 C          1 UNL1 0.000
     2 C      -5.384584     3.960211     0.167283 C          1 UNL1 0.000
     3 C      -4.397385     2.980009     0.190127 C          1 UNL1 0.000
     4 C      -4.782328     1.643697     0.386476 C          1 UNL1 0.000
     5 C      -6.117826     1.248248     0.540614 C          1 UNL1 0.000
     6 C      -7.099979     2.298956     0.670303 C          1 UNL1 0.000
     7 N      -3.997501     0.512308     0.496028 N          1 UNL1 0.000
     8 C      -4.784358    -0.612115     0.650280 C          1 UNL1 0.000
     9 C      -4.401042    -1.949289     0.843157 C          1 UNL1 0.000
    10 C      -5.391074    -2.926083     0.880719 C          1 UNL1 0.000
    11 C      -6.724987    -2.607766     0.636063 C          1 UNL1 0.000
    12 C      -7.106255    -1.259849     0.393679 C          1 UNL1 0.000
    13 C      -6.120475    -0.211927     0.515980 C          1 UNL1 0.000
    14 C      -7.678565     4.668406     0.473461 C          1 UNL1 0.000
    15 C      -9.001250     4.393294     0.815469 C          1 UNL1 0.000
    16 C      -9.369994     3.097050     1.149085 C          1 UNL1 0.000
    17 C      -8.426837     2.067430     1.095813 C          1 UNL1 0.000
    18 C      -8.434219    -1.025017    -0.026458 C          1 UNL1 0.000
    19 C      -9.378803    -2.053262    -0.080431 C          1 UNL1 0.000
    20 C      -9.011119    -3.350840     0.249228 C          1 UNL1 0.000
    21 C      -7.688119    -3.628709     0.587697 C          1 UNL1 0.000
    22 C      -2.582454     0.503498     0.449765 C          1 UNL1 0.000
    23 C      -1.909146     0.527439     1.673049 C          1 UNL1 0.000
    24 C      -0.520511     0.524471     1.678125 C          1 UNL1 0.000
    25 C       0.206927     0.493331     0.474063 C          1 UNL1 0.000
    26 C      -0.482551     0.462622    -0.777064 C          1 UNL1 0.000
    27 C      -1.903265     0.467574    -0.794724 C          1 UNL1 0.000
    28 C       0.197042     0.424514    -2.018906 C          1 UNL1 0.000
    29 C      -0.481176     0.386352    -3.237261 C          1 UNL1 0.000
    30 C      -1.865791     0.386294    -3.251461 C          1 UNL1 0.000
    31 C      -2.566739     0.426101    -2.047508 C          1 UNL1 0.000
    32 H      -5.083892     4.992445    -0.001719 H          1 UNL1 0.000
    33 H      -3.353967     3.251910     0.052721 H          1 UNL1 0.000
    34 H      -3.356007    -2.226452     0.954416 H          1 UNL1 0.000
    35 H      -5.091177    -3.959648     1.042888 H          1 UNL1 0.000
    36 H      -7.398463     5.698389     0.262243 H          1 UNL1 0.000
    37 H      -9.731933     5.196633     0.854160 H          1 UNL1 0.000
    38 H     -10.387644     2.883937     1.465665 H          1 UNL1 0.000
    39 H      -8.732327     1.086672     1.444627 H          1 UNL1 0.000
    40 H      -8.738932    -0.043349    -0.373387 H          1 UNL1 0.000
    41 H     -10.396496    -1.838261    -0.395557 H          1 UNL1 0.000
    42 H      -9.742667    -4.153301     0.208983 H          1 UNL1 0.000
    43 H      -7.408654    -4.659790     0.794352 H          1 UNL1 0.000
    44 H      -2.453524     0.554552     2.614187 H          1 UNL1 0.000
    45 H       0.007129     0.546035     2.630425 H          1 UNL1 0.000
    46 H       1.285809     0.420484    -2.051087 H          1 UNL1 0.000
    47 H       0.076851     0.353787    -4.169013 H          1 UNL1 0.000
    48 H      -2.404843     0.353231    -4.194346 H          1 UNL1 0.000
    49 H      -3.654451     0.419963    -2.101622 H          1 UNL1 0.000
    50 C       1.678473     0.492013     0.556690 C          1 UNL1 0.000
    51 C       2.387061     1.700374     0.621066 C          1 UNL1 0.000
    52 C       3.785676     1.732921     0.671477 C          1 UNL1 0.000
    53 C       4.460483     0.508318     0.655168 C          1 UNL1 0.000
    54 C       3.796596    -0.716475     0.600649 C          1 UNL1 0.000
    55 C       2.388497    -0.723544     0.555965 C          1 UNL1 0.000
    56 N       5.809999     0.236102     0.682939 N          1 UNL1 0.000
    57 C       6.020852    -1.116892     0.646619 C          1 UNL1 0.000
    58 C       4.791259    -1.732998     0.597923 C          1 UNL1 0.000
    59 H       1.841913     2.643216     0.621158 H          1 UNL1 0.000
    60 H       4.318302     2.677166     0.713843 H          1 UNL1 0.000
    61 H       1.855092    -1.669243     0.506005 H          1 UNL1 0.000
    62 H       6.535372     0.938678     0.720312 H          1 UNL1 0.000
    63 H       7.023378    -1.522793     0.657715 H          1 UNL1 0.000
    64 H       4.621622    -2.801009     0.559928 H          1 UNL1 0.000
@<TRIPOS>BOND
     1      1      2   2
     2      2      3   1
     3      3      4   2
     4      4      5   1
     5      5      6   2
     6      6      1   1
     7      4      7   1
     8      7      8   1
     9      8      9   2
    10      9     10   1
    11     10     11   2
    12     11     12   1
    13     12     13   2
    14     13      8   1
    15     13      5   1
    16      1     14   1
    17     14     15   2
    18     15     16   1
    19     16     17   2
    20     17      6   1
    21     12     18   1
    22     18     19   2
    23     19     20   1
    24     20     21   2
    25     21     11   1
    26     22     23   2
    27     23     24   1
    28     24     25   2
    29     25     26   1
    30     26     27   2
    31     27     22   1
    32     26     28   1
    33     28     29   2
    34     29     30   1
    35     30     31   2
    36     31     27   1
    37      7     22   1
    38      2     32   1
    39      3     33   1
    40      9     34   1
    41     10     35   1
    42     14     36   1
    43     15     37   1
    44     16     38   1
    45     17     39   1
    46     18     40   1
    47     19     41   1
    48     20     42   1
    49     21     43   1
    50     23     44   1
    51     24     45   1
    52     28     46   1
    53     29     47   1
    54     30     48   1
    55     31     49   1
    56     50     51   2
    57     51     52   1
    58     52     53   2
    59     53     54   1
    60     54     55   2
    61     55     50   1
    62     53     56   1
    63     56     57   1
    64     57     58   2
    65     58     54   1
    66     51     59   1
    67     52     60   1
    68     55     61   1
    69     56     62   1
    70     57     63   1
    71     58     64   1
    72     25     50   1
