# Produced with molli package
@<TRIPOS>MOLECULE
D_6_Q
58 65 0 0 0
SMALL
USER_CHARGES

@<TRIPOS>ATOM
     1 C      -6.780280     3.693398     0.576238 C          1 UNL1 0.000
     2 C      -5.441341     4.004838     0.801247 C          1 UNL1 0.000
     3 C      -4.458600     3.020796     0.762257 C          1 UNL1 0.000
     4 C      -4.852806     1.684676     0.583571 C          1 UNL1 0.000
     5 C      -6.192915     1.292733     0.468248 C          1 UNL1 0.000
     6 C      -7.174128     2.345594     0.353980 C          1 UNL1 0.000
     7 N      -4.075021     0.554172     0.425737 N          1 UNL1 0.000
     8 C      -4.869325    -0.570823     0.315543 C          1 UNL1 0.000
     9 C      -4.499091    -1.909291     0.105443 C          1 UNL1 0.000
    10 C      -5.494584    -2.881756     0.099187 C          1 UNL1 0.000
    11 C      -6.818304    -2.558619     0.389877 C          1 UNL1 0.000
    12 C      -7.184579    -1.209947     0.648948 C          1 UNL1 0.000
    13 C      -6.198738    -0.166626     0.496965 C          1 UNL1 0.000
    14 C      -7.736335     4.720815     0.526880 C          1 UNL1 0.000
    15 C      -9.065643     4.448483     0.209283 C          1 UNL1 0.000
    16 C      -9.447781     3.149167    -0.096415 C          1 UNL1 0.000
    17 C      -8.510169     2.114594    -0.042131 C          1 UNL1 0.000
    18 C      -8.497324    -0.968008     1.110733 C          1 UNL1 0.000
    19 C      -9.445543    -1.991029     1.191207 C          1 UNL1 0.000
    20 C      -9.095844    -3.289579     0.845641 C          1 UNL1 0.000
    21 C      -7.785721    -3.574049     0.464564 C          1 UNL1 0.000
    22 C      -2.659259     0.551366     0.392922 C          1 UNL1 0.000
    23 C      -2.000298     0.584017     1.623689 C          1 UNL1 0.000
    24 C      -0.612250     0.585633     1.644843 C          1 UNL1 0.000
    25 C       0.130558     0.558666     0.449215 C          1 UNL1 0.000
    26 C      -0.543801     0.552508    -0.810273 C          1 UNL1 0.000
    27 C      -1.965029     0.541809    -0.843573 C          1 UNL1 0.000
    28 C       0.148798     0.572831    -2.045949 C          1 UNL1 0.000
    29 C      -0.517254     0.573530    -3.271771 C          1 UNL1 0.000
    30 C      -1.901457     0.557042    -3.300640 C          1 UNL1 0.000
    31 C      -2.614943     0.543988    -2.103757 C          1 UNL1 0.000
    32 H      -5.132035     5.037900     0.948556 H          1 UNL1 0.000
    33 H      -3.410452     3.292864     0.857329 H          1 UNL1 0.000
    34 H      -3.461210    -2.189489    -0.053819 H          1 UNL1 0.000
    35 H      -5.206292    -3.915666    -0.081036 H          1 UNL1 0.000
    36 H      -7.446394     5.752480     0.715478 H          1 UNL1 0.000
    37 H      -9.791431     5.256053     0.166916 H          1 UNL1 0.000
    38 H     -10.471511     2.937635    -0.393844 H          1 UNL1 0.000
    39 H      -8.827836     1.130508    -0.369971 H          1 UNL1 0.000
    40 H      -8.785372     0.015465     1.467394 H          1 UNL1 0.000
    41 H     -10.451794    -1.771230     1.538252 H          1 UNL1 0.000
    42 H      -9.830859    -4.087710     0.905346 H          1 UNL1 0.000
    43 H      -7.519653    -4.605799     0.244047 H          1 UNL1 0.000
    44 H      -2.555714     0.602370     2.558842 H          1 UNL1 0.000
    45 H      -0.096302     0.611705     2.603810 H          1 UNL1 0.000
    46 H       1.237036     0.609925    -2.071622 H          1 UNL1 0.000
    47 H       0.049176     0.597588    -4.198935 H          1 UNL1 0.000
    48 H      -2.430785     0.565390    -4.249717 H          1 UNL1 0.000
    49 H      -3.702136     0.546678    -2.170076 H          1 UNL1 0.000
    50 C       1.593759     0.532192     0.551949 C          1 UNL1 0.000
    51 N       2.207162     1.724250     0.764733 N          1 UNL1 0.000
    52 C       3.557543     1.685456     0.841574 C          1 UNL1 0.000
    53 C       4.277301     0.508743     0.721245 C          1 UNL1 0.000
    54 N       3.680969    -0.687014     0.519514 N          1 UNL1 0.000
    55 C       2.327630    -0.647471     0.439567 C          1 UNL1 0.000
    56 H       4.050805     2.637331     1.002124 H          1 UNL1 0.000
    57 H       5.359482     0.497156     0.784064 H          1 UNL1 0.000
    58 H       1.840838    -1.603391     0.276375 H          1 UNL1 0.000
@<TRIPOS>BOND
     1      1      2   2
     2      2      3   1
     3      3      4   2
     4      4      5   1
     5      5      6   2
     6      6      1   1
     7      4      7   1
     8      7      8   1
     9      8      9   2
    10      9     10   1
    11     10     11   2
    12     11     12   1
    13     12     13   2
    14     13      8   1
    15     13      5   1
    16      1     14   1
    17     14     15   2
    18     15     16   1
    19     16     17   2
    20     17      6   1
    21     12     18   1
    22     18     19   2
    23     19     20   1
    24     20     21   2
    25     21     11   1
    26     22     23   2
    27     23     24   1
    28     24     25   2
    29     25     26   1
    30     26     27   2
    31     27     22   1
    32     26     28   1
    33     28     29   2
    34     29     30   1
    35     30     31   2
    36     31     27   1
    37      7     22   1
    38      2     32   1
    39      3     33   1
    40      9     34   1
    41     10     35   1
    42     14     36   1
    43     15     37   1
    44     16     38   1
    45     17     39   1
    46     18     40   1
    47     19     41   1
    48     20     42   1
    49     21     43   1
    50     23     44   1
    51     24     45   1
    52     28     46   1
    53     29     47   1
    54     30     48   1
    55     31     49   1
    56     50     51   2
    57     51     52   1
    58     52     53   2
    59     53     54   1
    60     54     55   2
    61     55     50   1
    62     52     56   1
    63     53     57   1
    64     55     58   1
    65     25     50   1
