# Produced with molli package
@<TRIPOS>MOLECULE
D_6_P
64 71 0 0 0
SMALL
USER_CHARGES

@<TRIPOS>ATOM
     1 C      -6.753229     3.621133     0.645880 C          1 UNL1 0.000
     2 C      -5.419882     3.943873     0.887381 C          1 UNL1 0.000
     3 C      -4.422403     2.976935     0.813319 C          1 UNL1 0.000
     4 C      -4.796628     1.642045     0.588955 C          1 UNL1 0.000
     5 C      -6.130764     1.234845     0.455471 C          1 UNL1 0.000
     6 C      -7.125725     2.277406     0.369268 C          1 UNL1 0.000
     7 N      -4.002262     0.528609     0.396948 N          1 UNL1 0.000
     8 C      -4.779938    -0.606799     0.271932 C          1 UNL1 0.000
     9 C      -4.386426    -1.937187     0.052521 C          1 UNL1 0.000
    10 C      -5.364527    -2.926526     0.034092 C          1 UNL1 0.000
    11 C      -6.696075    -2.627381     0.312972 C          1 UNL1 0.000
    12 C      -7.088542    -1.286483     0.576460 C          1 UNL1 0.000
    13 C      -6.116764    -0.225296     0.449524 C          1 UNL1 0.000
    14 C      -7.725074     4.634748     0.635342 C          1 UNL1 0.000
    15 C      -9.048561     4.355271     0.300301 C          1 UNL1 0.000
    16 C      -9.408327     3.064491    -0.063476 C          1 UNL1 0.000
    17 C      -8.455136     2.042855    -0.046222 C          1 UNL1 0.000
    18 C      -8.412519    -1.072240     1.020020 C          1 UNL1 0.000
    19 C      -9.343553    -2.112650     1.080654 C          1 UNL1 0.000
    20 C      -8.965134    -3.403145     0.736118 C          1 UNL1 0.000
    21 C      -7.645012    -3.661242     0.371993 C          1 UNL1 0.000
    22 C      -2.586960     0.546103     0.361940 C          1 UNL1 0.000
    23 C      -1.924310     0.555377     1.591784 C          1 UNL1 0.000
    24 C      -0.536188     0.548063     1.610912 C          1 UNL1 0.000
    25 C       0.203178     0.539526     0.413889 C          1 UNL1 0.000
    26 C      -0.474922     0.553593    -0.844322 C          1 UNL1 0.000
    27 C      -1.894885     0.551879    -0.876236 C          1 UNL1 0.000
    28 C       0.217869     0.574211    -2.079772 C          1 UNL1 0.000
    29 C      -0.448002     0.591092    -3.305361 C          1 UNL1 0.000
    30 C      -1.832079     0.588455    -3.333684 C          1 UNL1 0.000
    31 C      -2.545955     0.570658    -2.136465 C          1 UNL1 0.000
    32 H      -5.127069     4.975009     1.075503 H          1 UNL1 0.000
    33 H      -3.378805     3.260187     0.921340 H          1 UNL1 0.000
    34 H      -3.342524    -2.198932    -0.100018 H          1 UNL1 0.000
    35 H      -5.056284    -3.954348    -0.147947 H          1 UNL1 0.000
    36 H      -7.452432     5.661767     0.869532 H          1 UNL1 0.000
    37 H      -9.787047     5.152290     0.289540 H          1 UNL1 0.000
    38 H     -10.426936     2.850233    -0.376273 H          1 UNL1 0.000
    39 H      -8.754504     1.068188    -0.417255 H          1 UNL1 0.000
    40 H      -8.724848    -0.097522     1.379037 H          1 UNL1 0.000
    41 H     -10.358881    -1.912617     1.412974 H          1 UNL1 0.000
    42 H      -9.685629    -4.215199     0.783277 H          1 UNL1 0.000
    43 H      -7.356454    -4.687144     0.152229 H          1 UNL1 0.000
    44 H      -2.478245     0.550074     2.527958 H          1 UNL1 0.000
    45 H      -0.019203     0.536659     2.569190 H          1 UNL1 0.000
    46 H       1.306404     0.584266    -2.101729 H          1 UNL1 0.000
    47 H       0.119907     0.609842    -4.231725 H          1 UNL1 0.000
    48 H      -2.361180     0.604665    -4.282784 H          1 UNL1 0.000
    49 H      -3.632624     0.577949    -2.201882 H          1 UNL1 0.000
    50 C       1.672199     0.494347     0.509902 C          1 UNL1 0.000
    51 C       2.422201     1.669102     0.679982 C          1 UNL1 0.000
    52 C       3.818387     1.621450     0.739579 C          1 UNL1 0.000
    53 C       4.471945     0.394332     0.642772 C          1 UNL1 0.000
    54 C       3.745446    -0.778098     0.457452 C          1 UNL1 0.000
    55 C       2.351649    -0.730180     0.405230 C          1 UNL1 0.000
    56 O       5.835998     0.293323     0.645649 O          1 UNL1 0.000
    57 C       6.389468     0.719433     1.889408 C          1 UNL1 0.000
    58 H       1.918550     2.631615     0.744365 H          1 UNL1 0.000
    59 H       4.383011     2.543773     0.834980 H          1 UNL1 0.000
    60 H       4.262599    -1.727736     0.355400 H          1 UNL1 0.000
    61 H       1.792753    -1.653114     0.264300 H          1 UNL1 0.000
    62 H       7.432545     0.390032     1.919228 H          1 UNL1 0.000
    63 H       5.868132     0.262641     2.738544 H          1 UNL1 0.000
    64 H       6.377759     1.810643     1.971760 H          1 UNL1 0.000
@<TRIPOS>BOND
     1      1      2   2
     2      2      3   1
     3      3      4   2
     4      4      5   1
     5      5      6   2
     6      6      1   1
     7      4      7   1
     8      7      8   1
     9      8      9   2
    10      9     10   1
    11     10     11   2
    12     11     12   1
    13     12     13   2
    14     13      8   1
    15     13      5   1
    16      1     14   1
    17     14     15   2
    18     15     16   1
    19     16     17   2
    20     17      6   1
    21     12     18   1
    22     18     19   2
    23     19     20   1
    24     20     21   2
    25     21     11   1
    26     22     23   2
    27     23     24   1
    28     24     25   2
    29     25     26   1
    30     26     27   2
    31     27     22   1
    32     26     28   1
    33     28     29   2
    34     29     30   1
    35     30     31   2
    36     31     27   1
    37      7     22   1
    38      2     32   1
    39      3     33   1
    40      9     34   1
    41     10     35   1
    42     14     36   1
    43     15     37   1
    44     16     38   1
    45     17     39   1
    46     18     40   1
    47     19     41   1
    48     20     42   1
    49     21     43   1
    50     23     44   1
    51     24     45   1
    52     28     46   1
    53     29     47   1
    54     30     48   1
    55     31     49   1
    56     50     51   2
    57     51     52   1
    58     52     53   2
    59     53     54   1
    60     54     55   2
    61     55     50   1
    62     56     57   1
    63     53     56   1
    64     51     58   1
    65     52     59   1
    66     54     60   1
    67     55     61   1
    68     57     62   1
    69     57     63   1
    70     57     64   1
    71     25     50   1
