# Produced with molli package
@<TRIPOS>MOLECULE
D_6_T
63 70 0 0 0
SMALL
USER_CHARGES

@<TRIPOS>ATOM
     1 C      -6.791002     3.631324     0.446809 C          1 UNL1 0.000
     2 C      -5.459433     3.962808     0.208179 C          1 UNL1 0.000
     3 C      -4.463673     2.991699     0.221914 C          1 UNL1 0.000
     4 C      -4.837080     1.649063     0.395514 C          1 UNL1 0.000
     5 C      -6.169446     1.237404     0.535686 C          1 UNL1 0.000
     6 C      -7.163672     2.277118     0.669041 C          1 UNL1 0.000
     7 N      -4.040704     0.524976     0.491374 N          1 UNL1 0.000
     8 C      -4.815106    -0.608815     0.637987 C          1 UNL1 0.000
     9 C      -4.416570    -1.941994     0.827716 C          1 UNL1 0.000
    10 C      -5.395174    -2.930007     0.862926 C          1 UNL1 0.000
    11 C      -6.731909    -2.626578     0.615788 C          1 UNL1 0.000
    12 C      -7.128088    -1.282955     0.372217 C          1 UNL1 0.000
    13 C      -6.155356    -0.223284     0.501093 C          1 UNL1 0.000
    14 C      -7.761016     4.645313     0.503811 C          1 UNL1 0.000
    15 C      -9.084943     4.353842     0.826021 C          1 UNL1 0.000
    16 C      -9.446282     3.049188     1.133455 C          1 UNL1 0.000
    17 C      -8.493464     2.028511     1.075451 C          1 UNL1 0.000
    18 C      -8.457155    -1.064576    -0.053056 C          1 UNL1 0.000
    19 C      -9.389606    -2.103968    -0.108153 C          1 UNL1 0.000
    20 C      -9.008192    -3.396623     0.225319 C          1 UNL1 0.000
    21 C      -7.682926    -3.658707     0.566962 C          1 UNL1 0.000
    22 C      -2.625659     0.531866     0.446932 C          1 UNL1 0.000
    23 C      -1.954406     0.559386     1.671136 C          1 UNL1 0.000
    24 C      -0.565893     0.562671     1.678045 C          1 UNL1 0.000
    25 C       0.163359     0.534954     0.474993 C          1 UNL1 0.000
    26 C      -0.524053     0.507987    -0.777284 C          1 UNL1 0.000
    27 C      -1.944813     0.504611    -0.796878 C          1 UNL1 0.000
    28 C       0.157413     0.480263    -2.018354 C          1 UNL1 0.000
    29 C      -0.518818     0.444078    -3.237877 C          1 UNL1 0.000
    30 C      -1.903433     0.434266    -3.253946 C          1 UNL1 0.000
    31 C      -2.606261     0.463825    -2.050756 C          1 UNL1 0.000
    32 H      -5.166876     5.000473     0.059281 H          1 UNL1 0.000
    33 H      -3.421896     3.275617     0.096667 H          1 UNL1 0.000
    34 H      -3.368685    -2.207089     0.941276 H          1 UNL1 0.000
    35 H      -5.083881    -3.960116     1.025527 H          1 UNL1 0.000
    36 H      -7.487112     5.681038     0.313415 H          1 UNL1 0.000
    37 H      -9.822631     5.150471     0.869868 H          1 UNL1 0.000
    38 H     -10.465819     2.822364     1.434038 H          1 UNL1 0.000
    39 H      -8.795162     1.040684     1.406374 H          1 UNL1 0.000
    40 H      -8.771789    -0.087108    -0.403058 H          1 UNL1 0.000
    41 H     -10.408830    -1.901475    -0.426611 H          1 UNL1 0.000
    42 H      -9.730480    -4.207458     0.185407 H          1 UNL1 0.000
    43 H      -7.392149    -4.686113     0.776386 H          1 UNL1 0.000
    44 H      -2.500367     0.581484     2.611472 H          1 UNL1 0.000
    45 H      -0.039839     0.583815     2.631190 H          1 UNL1 0.000
    46 H       1.246185     0.485030    -2.048854 H          1 UNL1 0.000
    47 H       0.040484     0.421232    -4.169156 H          1 UNL1 0.000
    48 H      -2.440953     0.402365    -4.197769 H          1 UNL1 0.000
    49 H      -3.693885     0.451070    -2.106387 H          1 UNL1 0.000
    50 C       1.633662     0.522544     0.560895 C          1 UNL1 0.000
    51 C       2.360352     1.720231     0.613891 C          1 UNL1 0.000
    52 C       3.757244     1.706561     0.668670 C          1 UNL1 0.000
    53 C       4.454231     0.493746     0.674624 C          1 UNL1 0.000
    54 C       3.733401    -0.704918     0.633153 C          1 UNL1 0.000
    55 C       2.337321    -0.690189     0.578596 C          1 UNL1 0.000
    56 C       5.953247     0.463549     0.717955 C          1 UNL1 0.000
    57 H       1.837839     2.674597     0.601440 H          1 UNL1 0.000
    58 H       4.294434     2.651665     0.701202 H          1 UNL1 0.000
    59 H       4.255261    -1.659272     0.637588 H          1 UNL1 0.000
    60 H       1.796327    -1.633473     0.538533 H          1 UNL1 0.000
    61 H       6.345252    -0.036039    -0.173948 H          1 UNL1 0.000
    62 H       6.294659    -0.071296     1.609933 H          1 UNL1 0.000
    63 H       6.375045     1.473474     0.749229 H          1 UNL1 0.000
@<TRIPOS>BOND
     1      1      2   2
     2      2      3   1
     3      3      4   2
     4      4      5   1
     5      5      6   2
     6      6      1   1
     7      4      7   1
     8      7      8   1
     9      8      9   2
    10      9     10   1
    11     10     11   2
    12     11     12   1
    13     12     13   2
    14     13      8   1
    15     13      5   1
    16      1     14   1
    17     14     15   2
    18     15     16   1
    19     16     17   2
    20     17      6   1
    21     12     18   1
    22     18     19   2
    23     19     20   1
    24     20     21   2
    25     21     11   1
    26     22     23   2
    27     23     24   1
    28     24     25   2
    29     25     26   1
    30     26     27   2
    31     27     22   1
    32     26     28   1
    33     28     29   2
    34     29     30   1
    35     30     31   2
    36     31     27   1
    37      7     22   1
    38      2     32   1
    39      3     33   1
    40      9     34   1
    41     10     35   1
    42     14     36   1
    43     15     37   1
    44     16     38   1
    45     17     39   1
    46     18     40   1
    47     19     41   1
    48     20     42   1
    49     21     43   1
    50     23     44   1
    51     24     45   1
    52     28     46   1
    53     29     47   1
    54     30     48   1
    55     31     49   1
    56     50     51   2
    57     51     52   1
    58     52     53   2
    59     53     54   1
    60     54     55   2
    61     55     50   1
    62     53     56   1
    63     51     57   1
    64     52     58   1
    65     54     59   1
    66     55     60   1
    67     56     61   1
    68     56     62   1
    69     56     63   1
    70     25     50   1
