# Produced with molli package
@<TRIPOS>MOLECULE
D_7_S
63 69 0 0 0
SMALL
USER_CHARGES

@<TRIPOS>ATOM
     1 C      -9.040420     3.597601     2.125647 C          1 UNL1 0.000
     2 C      -7.706470     3.912321     2.373220 C          1 UNL1 0.000
     3 C      -6.712469     2.940250     2.302826 C          1 UNL1 0.000
     4 C      -7.087349     1.605647     2.071658 C          1 UNL1 0.000
     5 C      -8.423643     1.210374     1.913623 C          1 UNL1 0.000
     6 C      -9.414988     2.258567     1.834402 C          1 UNL1 0.000
     7 N      -6.296230     0.489898     1.863095 N          1 UNL1 0.000
     8 C      -7.084846    -0.633685     1.688748 C          1 UNL1 0.000
     9 C      -6.704303    -1.966058     1.452908 C          1 UNL1 0.000
    10 C      -7.691751    -2.945389     1.400734 C          1 UNL1 0.000
    11 C      -9.023939    -2.639075     1.666430 C          1 UNL1 0.000
    12 C      -9.403425    -1.302559     1.964155 C          1 UNL1 0.000
    13 C      -8.419842    -0.247818     1.872793 C          1 UNL1 0.000
    14 C     -10.009992     4.614391     2.121778 C          1 UNL1 0.000
    15 C     -11.334492     4.341948     1.784260 C          1 UNL1 0.000
    16 C     -11.696278     3.056781     1.404881 C          1 UNL1 0.000
    17 C     -10.743715     2.034547     1.409172 C          1 UNL1 0.000
    18 C     -10.729060    -1.087602     2.403174 C          1 UNL1 0.000
    19 C     -11.675351    -2.115696     2.414175 C          1 UNL1 0.000
    20 C     -11.309482    -3.398116     2.029317 C          1 UNL1 0.000
    21 C      -9.986721    -3.662020     1.679012 C          1 UNL1 0.000
    22 C      -4.882296     0.501864     1.795620 C          1 UNL1 0.000
    23 C      -4.133743     0.755832     2.944687 C          1 UNL1 0.000
    24 C      -2.736439     0.748815     2.864180 C          1 UNL1 0.000
    25 C      -2.078113     0.521079     1.642450 C          1 UNL1 0.000
    26 C      -2.859850     0.276783     0.501547 C          1 UNL1 0.000
    27 C      -4.256093     0.255325     0.573766 C          1 UNL1 0.000
    28 C      -0.600678     0.531211     1.624404 C          1 UNL1 0.000
    29 C       0.168493     0.478778     0.525002 C          1 UNL1 0.000
    30 H      -7.409832     4.942168     2.563047 H          1 UNL1 0.000
    31 H      -5.669208     3.224148     2.410993 H          1 UNL1 0.000
    32 H      -5.661025    -2.241605     1.324386 H          1 UNL1 0.000
    33 H      -7.390911    -3.973050     1.206037 H          1 UNL1 0.000
    34 H      -9.735101     5.638553     2.365468 H          1 UNL1 0.000
    35 H     -12.071865     5.140092     1.783171 H          1 UNL1 0.000
    36 H     -12.715119     2.847028     1.089759 H          1 UNL1 0.000
    37 H     -11.044406     1.067026     1.021394 H          1 UNL1 0.000
    38 H     -11.032225    -0.122221     2.794319 H          1 UNL1 0.000
    39 H     -12.692755    -1.912466     2.738062 H          1 UNL1 0.000
    40 H     -12.042143    -4.200550     2.035111 H          1 UNL1 0.000
    41 H      -9.708073    -4.683905     1.430099 H          1 UNL1 0.000
    42 H      -4.618504     0.925515     3.903326 H          1 UNL1 0.000
    43 H      -2.164372     0.923796     3.773492 H          1 UNL1 0.000
    44 H      -2.401869     0.098302    -0.466930 H          1 UNL1 0.000
    45 H      -4.838315     0.076999    -0.327624 H          1 UNL1 0.000
    46 H      -0.119939     0.596224     2.599581 H          1 UNL1 0.000
    47 H      -0.237201     0.426779    -0.479464 H          1 UNL1 0.000
    48 C       1.630450     0.503610     0.589016 C          1 UNL1 0.000
    49 C       2.315324     1.717897     0.527542 C          1 UNL1 0.000
    50 C       3.713836     1.735652     0.528267 C          1 UNL1 0.000
    51 C       4.450772     0.541919     0.591232 C          1 UNL1 0.000
    52 C       3.757818    -0.671472     0.671059 C          1 UNL1 0.000
    53 C       2.355683    -0.688107     0.672362 C          1 UNL1 0.000
    54 C       5.944374     0.647097     0.555871 C          1 UNL1 0.000
    55 C       6.819169    -0.580735     0.573949 C          1 UNL1 0.000
    56 O       6.465305     1.762540     0.492103 O          1 UNL1 0.000
    57 H       1.770289     2.657225     0.464080 H          1 UNL1 0.000
    58 H       4.227051     2.694559     0.467208 H          1 UNL1 0.000
    59 H       4.265864    -1.627480     0.725049 H          1 UNL1 0.000
    60 H       1.834052    -1.641961     0.724539 H          1 UNL1 0.000
    61 H       7.343603    -0.652975    -0.383324 H          1 UNL1 0.000
    62 H       6.283126    -1.511857     0.741738 H          1 UNL1 0.000
    63 H       7.549435    -0.474675     1.382022 H          1 UNL1 0.000
@<TRIPOS>BOND
     1      1      2   2
     2      2      3   1
     3      3      4   2
     4      4      5   1
     5      5      6   2
     6      6      1   1
     7      4      7   1
     8      7      8   1
     9      8      9   2
    10      9     10   1
    11     10     11   2
    12     11     12   1
    13     12     13   2
    14     13      8   1
    15     13      5   1
    16      1     14   1
    17     14     15   2
    18     15     16   1
    19     16     17   2
    20     17      6   1
    21     12     18   1
    22     18     19   2
    23     19     20   1
    24     20     21   2
    25     21     11   1
    26     22     23   2
    27     23     24   1
    28     24     25   2
    29     25     26   1
    30     26     27   2
    31     27     22   1
    32     25     28   1
    33     28     29   2
    34      7     22   1
    35      2     30   1
    36      3     31   1
    37      9     32   1
    38     10     33   1
    39     14     34   1
    40     15     35   1
    41     16     36   1
    42     17     37   1
    43     18     38   1
    44     19     39   1
    45     20     40   1
    46     21     41   1
    47     23     42   1
    48     24     43   1
    49     26     44   1
    50     27     45   1
    51     28     46   1
    52     29     47   1
    53     48     49   2
    54     49     50   1
    55     50     51   2
    56     51     52   1
    57     52     53   2
    58     53     48   1
    59     51     54   1
    60     54     55   1
    61     54     56   2
    62     49     57   1
    63     50     58   1
    64     52     59   1
    65     53     60   1
    66     55     61   1
    67     55     62   1
    68     55     63   1
    69     29     48   1
