# Produced with molli package
@<TRIPOS>MOLECULE
D_7_R
59 65 0 0 0
SMALL
USER_CHARGES

@<TRIPOS>ATOM
     1 C      -8.998594     3.628847     1.931159 C          1 UNL1 0.000
     2 C      -7.664919     3.948508     2.176129 C          1 UNL1 0.000
     3 C      -6.671905     2.973831     2.135361 C          1 UNL1 0.000
     4 C      -7.050357     1.634999     1.940850 C          1 UNL1 0.000
     5 C      -8.386321     1.236022     1.792489 C          1 UNL1 0.000
     6 C      -9.374245     2.282966     1.674007 C          1 UNL1 0.000
     7 N      -6.262027     0.511209     1.782662 N          1 UNL1 0.000
     8 C      -7.048759    -0.618859     1.660272 C          1 UNL1 0.000
     9 C      -6.664522    -1.959516     1.489041 C          1 UNL1 0.000
    10 C      -7.650876    -2.941011     1.478285 C          1 UNL1 0.000
    11 C      -8.985588    -2.623078     1.717194 C          1 UNL1 0.000
    12 C      -9.369621    -1.273380     1.943176 C          1 UNL1 0.000
    13 C      -8.384963    -0.223572     1.811955 C          1 UNL1 0.000
    14 C      -9.967703     4.645426     1.899407 C          1 UNL1 0.000
    15 C     -11.291073     4.365114     1.563606 C          1 UNL1 0.000
    16 C     -11.651975     3.071332     1.213161 C          1 UNL1 0.000
    17 C     -10.700626     2.048648     1.247766 C          1 UNL1 0.000
    18 C     -10.700566    -1.038996     2.355382 C          1 UNL1 0.000
    19 C     -11.645263    -2.067261     2.410064 C          1 UNL1 0.000
    20 C     -11.273119    -3.367396     2.097733 C          1 UNL1 0.000
    21 C      -9.946618    -3.646115     1.774337 C          1 UNL1 0.000
    22 C      -4.849143     0.514675     1.740098 C          1 UNL1 0.000
    23 C      -4.125662     0.668391     2.923451 C          1 UNL1 0.000
    24 C      -2.729302     0.626446     2.875678 C          1 UNL1 0.000
    25 C      -2.056103     0.465008     1.654339 C          1 UNL1 0.000
    26 C      -2.807239     0.314693     0.478034 C          1 UNL1 0.000
    27 C      -4.203609     0.332384     0.515874 C          1 UNL1 0.000
    28 C      -0.587731     0.381043     1.656085 C          1 UNL1 0.000
    29 C       0.198828     0.904637     0.700461 C          1 UNL1 0.000
    30 H      -7.368280     4.982205     2.343371 H          1 UNL1 0.000
    31 H      -5.628235     3.255057     2.247093 H          1 UNL1 0.000
    32 H      -5.619712    -2.237842     1.378739 H          1 UNL1 0.000
    33 H      -7.347680    -3.976705     1.336869 H          1 UNL1 0.000
    34 H      -9.693643     5.674773     2.121093 H          1 UNL1 0.000
    35 H     -12.028365     5.163043     1.541686 H          1 UNL1 0.000
    36 H     -12.669600     2.854697     0.898784 H          1 UNL1 0.000
    37 H     -10.999490     1.071044     0.884169 H          1 UNL1 0.000
    38 H     -11.010078    -0.055988     2.693275 H          1 UNL1 0.000
    39 H     -12.666314    -1.849653     2.712403 H          1 UNL1 0.000
    40 H     -12.004041    -4.170342     2.139600 H          1 UNL1 0.000
    41 H      -9.663588    -4.679132     1.582776 H          1 UNL1 0.000
    42 H      -4.631449     0.784936     3.878999 H          1 UNL1 0.000
    43 H      -2.167614     0.718671     3.803299 H          1 UNL1 0.000
    44 H      -2.313263     0.162087    -0.478484 H          1 UNL1 0.000
    45 H      -4.771178     0.214507    -0.404220 H          1 UNL1 0.000
    46 H      -0.145765    -0.132592     2.508329 H          1 UNL1 0.000
    47 H      -0.237274     1.448353    -0.131904 H          1 UNL1 0.000
    48 C       1.665637     0.803306     0.699517 C          1 UNL1 0.000
    49 N       2.236829    -0.071276     1.565476 N          1 UNL1 0.000
    50 C       3.588988    -0.187328     1.547530 C          1 UNL1 0.000
    51 C       4.396633     0.544721     0.694159 C          1 UNL1 0.000
    52 C       3.807095     1.446401    -0.190687 C          1 UNL1 0.000
    53 C       2.417048     1.573739    -0.187614 C          1 UNL1 0.000
    54 N       5.837106     0.361407     0.727283 N          1 UNL1 0.000
    55 O       6.328310    -0.154153     1.739673 O          1 UNL1 0.000
    56 O       6.483376     0.735460    -0.262002 O          1 UNL1 0.000
    57 H       3.989934    -0.910384     2.253618 H          1 UNL1 0.000
    58 H       4.404140     2.046052    -0.873591 H          1 UNL1 0.000
    59 H       1.936825     2.270994    -0.867730 H          1 UNL1 0.000
@<TRIPOS>BOND
     1      1      2   2
     2      2      3   1
     3      3      4   2
     4      4      5   1
     5      5      6   2
     6      6      1   1
     7      4      7   1
     8      7      8   1
     9      8      9   2
    10      9     10   1
    11     10     11   2
    12     11     12   1
    13     12     13   2
    14     13      8   1
    15     13      5   1
    16      1     14   1
    17     14     15   2
    18     15     16   1
    19     16     17   2
    20     17      6   1
    21     12     18   1
    22     18     19   2
    23     19     20   1
    24     20     21   2
    25     21     11   1
    26     22     23   2
    27     23     24   1
    28     24     25   2
    29     25     26   1
    30     26     27   2
    31     27     22   1
    32     25     28   1
    33     28     29   2
    34      7     22   1
    35      2     30   1
    36      3     31   1
    37      9     32   1
    38     10     33   1
    39     14     34   1
    40     15     35   1
    41     16     36   1
    42     17     37   1
    43     18     38   1
    44     19     39   1
    45     20     40   1
    46     21     41   1
    47     23     42   1
    48     24     43   1
    49     26     44   1
    50     27     45   1
    51     28     46   1
    52     29     47   1
    53     48     49   2
    54     49     50   1
    55     50     51   2
    56     51     52   1
    57     52     53   2
    58     53     48   1
    59     54     55   2
    60     54     56   1
    61     51     54   1
    62     50     57   1
    63     52     58   1
    64     53     59   1
    65     29     48   1
