# Produced with molli package
@<TRIPOS>MOLECULE
D_7_Q
56 62 0 0 0
SMALL
USER_CHARGES

@<TRIPOS>ATOM
     1 C      -8.998957     3.674699     2.039763 C          1 UNL1 0.000
     2 C      -7.667036     3.970591     2.315126 C          1 UNL1 0.000
     3 C      -6.673689     3.001767     2.187926 C          1 UNL1 0.000
     4 C      -7.043118     1.676349     1.890601 C          1 UNL1 0.000
     5 C      -8.383394     1.301608     1.717545 C          1 UNL1 0.000
     6 C      -9.371510     2.353142     1.683625 C          1 UNL1 0.000
     7 N      -6.256859     0.563907     1.611309 N          1 UNL1 0.000
     8 C      -7.071814    -0.538481     1.372545 C          1 UNL1 0.000
     9 C      -6.736463    -1.869678     1.059278 C          1 UNL1 0.000
    10 C      -7.745800    -2.827250     0.991423 C          1 UNL1 0.000
    11 C      -9.056004    -2.514452     1.339523 C          1 UNL1 0.000
    12 C      -9.392909    -1.186988     1.709812 C          1 UNL1 0.000
    13 C      -8.395670    -0.146959     1.617693 C          1 UNL1 0.000
    14 C      -9.966531     4.693181     2.063839 C          1 UNL1 0.000
    15 C     -11.283392     4.440534     1.682217 C          1 UNL1 0.000
    16 C     -11.642279     3.172401     1.245469 C          1 UNL1 0.000
    17 C     -10.694896     2.145872     1.232958 C          1 UNL1 0.000
    18 C     -10.686580    -0.964094     2.233231 C          1 UNL1 0.000
    19 C     -11.643662    -1.980848     2.279635 C          1 UNL1 0.000
    20 C     -11.323532    -3.254757     1.829785 C          1 UNL1 0.000
    21 C     -10.033401    -3.522928     1.375342 C          1 UNL1 0.000
    22 C      -4.832159     0.545968     1.591086 C          1 UNL1 0.000
    23 C      -4.111374     1.041138     2.683325 C          1 UNL1 0.000
    24 C      -2.714714     0.976359     2.680071 C          1 UNL1 0.000
    25 C      -2.030486     0.437806     1.584044 C          1 UNL1 0.000
    26 C      -2.759500    -0.043247     0.489487 C          1 UNL1 0.000
    27 C      -4.156033     0.007822     0.490761 C          1 UNL1 0.000
    28 C      -0.569458     0.329961     1.630027 C          1 UNL1 0.000
    29 C       0.223787     0.833468     0.670927 C          1 UNL1 0.000
    30 H      -7.369125     4.987777     2.562410 H          1 UNL1 0.000
    31 H      -5.633133     3.292089     2.299399 H          1 UNL1 0.000
    32 H      -5.707986    -2.174942     0.891882 H          1 UNL1 0.000
    33 H      -7.473355    -3.848830     0.733307 H          1 UNL1 0.000
    34 H      -9.693946     5.705000     2.356439 H          1 UNL1 0.000
    35 H     -12.016706     5.242393     1.692036 H          1 UNL1 0.000
    36 H     -12.654092     2.980358     0.898076 H          1 UNL1 0.000
    37 H     -10.992404     1.190341     0.812235 H          1 UNL1 0.000
    38 H     -10.950109    -0.004003     2.665887 H          1 UNL1 0.000
    39 H     -12.631925    -1.776725     2.683322 H          1 UNL1 0.000
    40 H     -12.064294    -4.048964     1.865893 H          1 UNL1 0.000
    41 H      -9.788029    -4.538969     1.073371 H          1 UNL1 0.000
    42 H      -4.618044     1.432975     3.562408 H          1 UNL1 0.000
    43 H      -2.165109     1.346445     3.543165 H          1 UNL1 0.000
    44 H      -2.247351    -0.472419    -0.368978 H          1 UNL1 0.000
    45 H      -4.697351    -0.350053    -0.382187 H          1 UNL1 0.000
    46 H      -0.164506    -0.163290     2.509979 H          1 UNL1 0.000
    47 H      -0.189911     1.385483    -0.169311 H          1 UNL1 0.000
    48 C       1.684940     0.747055     0.681326 C          1 UNL1 0.000
    49 N       2.332555     1.818756     0.164344 N          1 UNL1 0.000
    50 C       3.683893     1.737836     0.143707 C          1 UNL1 0.000
    51 C       4.371972     0.626335     0.599566 C          1 UNL1 0.000
    52 N       3.740855    -0.458957     1.097302 N          1 UNL1 0.000
    53 C       2.386715    -0.373132     1.122836 C          1 UNL1 0.000
    54 H       4.204412     2.601355    -0.254418 H          1 UNL1 0.000
    55 H       5.454455     0.578234     0.573329 H          1 UNL1 0.000
    56 H       1.878808    -1.252703     1.502908 H          1 UNL1 0.000
@<TRIPOS>BOND
     1      1      2   2
     2      2      3   1
     3      3      4   2
     4      4      5   1
     5      5      6   2
     6      6      1   1
     7      4      7   1
     8      7      8   1
     9      8      9   2
    10      9     10   1
    11     10     11   2
    12     11     12   1
    13     12     13   2
    14     13      8   1
    15     13      5   1
    16      1     14   1
    17     14     15   2
    18     15     16   1
    19     16     17   2
    20     17      6   1
    21     12     18   1
    22     18     19   2
    23     19     20   1
    24     20     21   2
    25     21     11   1
    26     22     23   2
    27     23     24   1
    28     24     25   2
    29     25     26   1
    30     26     27   2
    31     27     22   1
    32     25     28   1
    33     28     29   2
    34      7     22   1
    35      2     30   1
    36      3     31   1
    37      9     32   1
    38     10     33   1
    39     14     34   1
    40     15     35   1
    41     16     36   1
    42     17     37   1
    43     18     38   1
    44     19     39   1
    45     20     40   1
    46     21     41   1
    47     23     42   1
    48     24     43   1
    49     26     44   1
    50     27     45   1
    51     28     46   1
    52     29     47   1
    53     48     49   2
    54     49     50   1
    55     50     51   2
    56     51     52   1
    57     52     53   2
    58     53     48   1
    59     50     54   1
    60     51     55   1
    61     53     56   1
    62     29     48   1
