# Produced with molli package
@<TRIPOS>MOLECULE
D_7_T
61 67 0 0 0
SMALL
USER_CHARGES

@<TRIPOS>ATOM
     1 C      -8.965764     3.601823     1.874996 C          1 UNL1 0.000
     2 C      -7.637288     3.929789     1.615522 C          1 UNL1 0.000
     3 C      -6.644962     2.953955     1.608617 C          1 UNL1 0.000
     4 C      -7.019618     1.609304     1.772513 C          1 UNL1 0.000
     5 C      -8.355967     1.205611     1.897503 C          1 UNL1 0.000
     6 C      -9.339703     2.246256     2.079301 C          1 UNL1 0.000
     7 N      -6.232659     0.473243     1.809511 N          1 UNL1 0.000
     8 C      -7.023945    -0.658094     1.884820 C          1 UNL1 0.000
     9 C      -6.649048    -2.003198     2.045192 C          1 UNL1 0.000
    10 C      -7.643028    -2.976529     2.060302 C          1 UNL1 0.000
    11 C      -8.974754    -2.645192     1.824360 C          1 UNL1 0.000
    12 C      -9.350056    -1.288254     1.629245 C          1 UNL1 0.000
    13 C      -8.360526    -0.249973     1.791937 C          1 UNL1 0.000
    14 C      -9.932164     4.616767     1.966441 C          1 UNL1 0.000
    15 C     -11.248739     4.323064     2.316934 C          1 UNL1 0.000
    16 C     -11.607003     3.014291     2.611906 C          1 UNL1 0.000
    17 C     -10.660772     1.991475     2.508940 C          1 UNL1 0.000
    18 C     -10.677796    -1.030910     1.222683 C          1 UNL1 0.000
    19 C     -11.625989    -2.053009     1.130466 C          1 UNL1 0.000
    20 C     -11.264114    -3.363244     1.414632 C          1 UNL1 0.000
    21 C      -9.942941    -3.659071     1.744845 C          1 UNL1 0.000
    22 C      -4.818777     0.464278     1.756831 C          1 UNL1 0.000
    23 C      -4.085966     1.018198     2.808340 C          1 UNL1 0.000
    24 C      -2.690350     0.970807     2.763037 C          1 UNL1 0.000
    25 C      -2.028262     0.418250     1.657017 C          1 UNL1 0.000
    26 C      -2.784492    -0.125428     0.607906 C          1 UNL1 0.000
    27 C      -4.179865    -0.116808     0.659245 C          1 UNL1 0.000
    28 C      -0.559335     0.368198     1.655431 C          1 UNL1 0.000
    29 C       0.188569     0.626658     0.577330 C          1 UNL1 0.000
    30 H      -7.344180     4.966885     1.464223 H          1 UNL1 0.000
    31 H      -5.606480     3.235697     1.455769 H          1 UNL1 0.000
    32 H      -5.607789    -2.287003     2.173873 H          1 UNL1 0.000
    33 H      -7.348959    -4.014184     2.205428 H          1 UNL1 0.000
    34 H      -9.660591     5.654243     1.782719 H          1 UNL1 0.000
    35 H     -11.982837     5.120730     2.391762 H          1 UNL1 0.000
    36 H     -12.619087     2.785578     2.935280 H          1 UNL1 0.000
    37 H     -10.957266     0.995744     2.822101 H          1 UNL1 0.000
    38 H     -10.978471    -0.034146     0.916984 H          1 UNL1 0.000
    39 H     -12.642542    -1.822729     0.822657 H          1 UNL1 0.000
    40 H     -11.999350    -4.160435     1.346501 H          1 UNL1 0.000
    41 H      -9.669018    -4.697454     1.919778 H          1 UNL1 0.000
    42 H      -4.583693     1.444642     3.676089 H          1 UNL1 0.000
    43 H      -2.121315     1.372987     3.598939 H          1 UNL1 0.000
    44 H      -2.294132    -0.571264    -0.254250 H          1 UNL1 0.000
    45 H      -4.751801    -0.535427    -0.165742 H          1 UNL1 0.000
    46 H      -0.091394     0.125690     2.609168 H          1 UNL1 0.000
    47 H      -0.242151     0.912312    -0.379656 H          1 UNL1 0.000
    48 C       1.650817     0.570831     0.626957 C          1 UNL1 0.000
    49 C       2.316526    -0.658343     0.638033 C          1 UNL1 0.000
    50 C       3.713128    -0.703196     0.677567 C          1 UNL1 0.000
    51 C       4.459355     0.480273     0.710844 C          1 UNL1 0.000
    52 C       3.787889     1.709180     0.705435 C          1 UNL1 0.000
    53 C       2.391880     1.754270     0.661760 C          1 UNL1 0.000
    54 C       5.958525     0.447475     0.750822 C          1 UNL1 0.000
    55 H       1.753983    -1.588457     0.609182 H          1 UNL1 0.000
    56 H       4.211567    -1.669763     0.680068 H          1 UNL1 0.000
    57 H       4.349323     2.640265     0.734347 H          1 UNL1 0.000
    58 H       1.888903     2.718338     0.659249 H          1 UNL1 0.000
    59 H       6.322398     0.934841     1.661000 H          1 UNL1 0.000
    60 H       6.369965     0.962717    -0.123144 H          1 UNL1 0.000
    61 H       6.338580    -0.579379     0.744350 H          1 UNL1 0.000
@<TRIPOS>BOND
     1      1      2   2
     2      2      3   1
     3      3      4   2
     4      4      5   1
     5      5      6   2
     6      6      1   1
     7      4      7   1
     8      7      8   1
     9      8      9   2
    10      9     10   1
    11     10     11   2
    12     11     12   1
    13     12     13   2
    14     13      8   1
    15     13      5   1
    16      1     14   1
    17     14     15   2
    18     15     16   1
    19     16     17   2
    20     17      6   1
    21     12     18   1
    22     18     19   2
    23     19     20   1
    24     20     21   2
    25     21     11   1
    26     22     23   2
    27     23     24   1
    28     24     25   2
    29     25     26   1
    30     26     27   2
    31     27     22   1
    32     25     28   1
    33     28     29   2
    34      7     22   1
    35      2     30   1
    36      3     31   1
    37      9     32   1
    38     10     33   1
    39     14     34   1
    40     15     35   1
    41     16     36   1
    42     17     37   1
    43     18     38   1
    44     19     39   1
    45     20     40   1
    46     21     41   1
    47     23     42   1
    48     24     43   1
    49     26     44   1
    50     27     45   1
    51     28     46   1
    52     29     47   1
    53     48     49   2
    54     49     50   1
    55     50     51   2
    56     51     52   1
    57     52     53   2
    58     53     48   1
    59     51     54   1
    60     49     55   1
    61     50     56   1
    62     52     57   1
    63     53     58   1
    64     54     59   1
    65     54     60   1
    66     54     61   1
    67     29     48   1
