# Produced with molli package
@<TRIPOS>MOLECULE
D_7_P
62 68 0 0 0
SMALL
USER_CHARGES

@<TRIPOS>ATOM
     1 C      -8.901478     3.655998     1.659651 C          1 UNL1 0.000
     2 C      -7.566513     3.952232     1.390174 C          1 UNL1 0.000
     3 C      -6.589055     2.961334     1.420883 C          1 UNL1 0.000
     4 C      -6.988095     1.632267     1.637093 C          1 UNL1 0.000
     5 C      -8.328873     1.254639     1.787361 C          1 UNL1 0.000
     6 C      -9.297962     2.315551     1.915063 C          1 UNL1 0.000
     7 N      -6.219937     0.492038     1.762367 N          1 UNL1 0.000
     8 C      -7.022560    -0.621497     1.910278 C          1 UNL1 0.000
     9 C      -6.663360    -1.961093     2.131418 C          1 UNL1 0.000
    10 C      -7.669965    -2.922045     2.164890 C          1 UNL1 0.000
    11 C      -8.993931    -2.587143     1.887044 C          1 UNL1 0.000
    12 C      -9.349704    -1.235752     1.628788 C          1 UNL1 0.000
    13 C      -8.351049    -0.203552     1.761921 C          1 UNL1 0.000
    14 C      -9.851500     4.688945     1.716173 C          1 UNL1 0.000
    15 C     -11.172892     4.429099     2.076356 C          1 UNL1 0.000
    16 C     -11.553477     3.137219     2.414839 C          1 UNL1 0.000
    17 C     -10.623881     2.096476     2.349885 C          1 UNL1 0.000
    18 C     -10.664384    -0.978856     1.181015 C          1 UNL1 0.000
    19 C     -11.621796    -1.993222     1.104212 C          1 UNL1 0.000
    20 C     -11.281521    -3.295480     1.446048 C          1 UNL1 0.000
    21 C      -9.972242    -3.592606     1.821225 C          1 UNL1 0.000
    22 C      -4.811113     0.461125     1.700657 C          1 UNL1 0.000
    23 C      -4.069062     0.644681     2.866794 C          1 UNL1 0.000
    24 C      -2.674626     0.595712     2.794325 C          1 UNL1 0.000
    25 C      -2.023841     0.382100     1.567999 C          1 UNL1 0.000
    26 C      -2.797412     0.189252     0.412327 C          1 UNL1 0.000
    27 C      -4.191970     0.229784     0.472143 C          1 UNL1 0.000
    28 C      -0.554077     0.309534     1.549528 C          1 UNL1 0.000
    29 C       0.208462     0.695947     0.516931 C          1 UNL1 0.000
    30 H      -7.256043     4.979218     1.207480 H          1 UNL1 0.000
    31 H      -5.543266     3.219718     1.276876 H          1 UNL1 0.000
    32 H      -5.625600    -2.250230     2.274962 H          1 UNL1 0.000
    33 H      -7.390575    -3.957282     2.351017 H          1 UNL1 0.000
    34 H      -9.562758     5.715250     1.499060 H          1 UNL1 0.000
    35 H     -11.893485     5.241026     2.124751 H          1 UNL1 0.000
    36 H     -12.569492     2.936391     2.744447 H          1 UNL1 0.000
    37 H     -10.937162     1.117330     2.697355 H          1 UNL1 0.000
    38 H     -10.945835     0.008701     0.830046 H          1 UNL1 0.000
    39 H     -12.627588    -1.764053     0.762012 H          1 UNL1 0.000
    40 H     -12.023764    -4.086993     1.387832 H          1 UNL1 0.000
    41 H      -9.714720    -4.626825     2.040041 H          1 UNL1 0.000
    42 H      -4.558105     0.814508     3.822808 H          1 UNL1 0.000
    43 H      -2.096634     0.733034     3.706223 H          1 UNL1 0.000
    44 H      -2.323935    -0.007096    -0.546462 H          1 UNL1 0.000
    45 H      -4.778129     0.080201    -0.431416 H          1 UNL1 0.000
    46 H      -0.087183    -0.060319     2.461433 H          1 UNL1 0.000
    47 H      -0.208302     1.113364    -0.395305 H          1 UNL1 0.000
    48 C       1.669717     0.623188     0.570746 C          1 UNL1 0.000
    49 C       2.331152    -0.608934     0.494832 C          1 UNL1 0.000
    50 C       3.726566    -0.660839     0.538290 C          1 UNL1 0.000
    51 C       4.456377     0.521287     0.647711 C          1 UNL1 0.000
    52 C       3.808186     1.748988     0.753643 C          1 UNL1 0.000
    53 C       2.414048     1.801034     0.702848 C          1 UNL1 0.000
    54 O       5.821825     0.497342     0.727858 O          1 UNL1 0.000
    55 C       6.390876     0.269466    -0.561568 C          1 UNL1 0.000
    56 H       1.765022    -1.532800     0.402956 H          1 UNL1 0.000
    57 H       4.236015    -1.618768     0.496732 H          1 UNL1 0.000
    58 H       4.385150     2.661197     0.872524 H          1 UNL1 0.000
    59 H       1.913025     2.763093     0.778927 H          1 UNL1 0.000
    60 H       7.477157     0.362461    -0.468913 H          1 UNL1 0.000
    61 H       6.047901     1.018237    -1.284757 H          1 UNL1 0.000
    62 H       6.167693    -0.740368    -0.921623 H          1 UNL1 0.000
@<TRIPOS>BOND
     1      1      2   2
     2      2      3   1
     3      3      4   2
     4      4      5   1
     5      5      6   2
     6      6      1   1
     7      4      7   1
     8      7      8   1
     9      8      9   2
    10      9     10   1
    11     10     11   2
    12     11     12   1
    13     12     13   2
    14     13      8   1
    15     13      5   1
    16      1     14   1
    17     14     15   2
    18     15     16   1
    19     16     17   2
    20     17      6   1
    21     12     18   1
    22     18     19   2
    23     19     20   1
    24     20     21   2
    25     21     11   1
    26     22     23   2
    27     23     24   1
    28     24     25   2
    29     25     26   1
    30     26     27   2
    31     27     22   1
    32     25     28   1
    33     28     29   2
    34      7     22   1
    35      2     30   1
    36      3     31   1
    37      9     32   1
    38     10     33   1
    39     14     34   1
    40     15     35   1
    41     16     36   1
    42     17     37   1
    43     18     38   1
    44     19     39   1
    45     20     40   1
    46     21     41   1
    47     23     42   1
    48     24     43   1
    49     26     44   1
    50     27     45   1
    51     28     46   1
    52     29     47   1
    53     48     49   2
    54     49     50   1
    55     50     51   2
    56     51     52   1
    57     52     53   2
    58     53     48   1
    59     54     55   1
    60     51     54   1
    61     49     56   1
    62     50     57   1
    63     52     58   1
    64     53     59   1
    65     55     60   1
    66     55     61   1
    67     55     62   1
    68     29     48   1
