# Produced with molli package
@<TRIPOS>MOLECULE
D_7_M
59 65 0 0 0
SMALL
USER_CHARGES

@<TRIPOS>ATOM
     1 C      -8.957395     3.638767     1.672451 C          1 UNL1 0.000
     2 C      -7.612438     3.947839     1.492530 C          1 UNL1 0.000
     3 C      -6.633748     2.961252     1.550080 C          1 UNL1 0.000
     4 C      -7.030718     1.621657     1.700343 C          1 UNL1 0.000
     5 C      -8.374281     1.234735     1.824022 C          1 UNL1 0.000
     6 C      -9.356827     2.296119     1.915064 C          1 UNL1 0.000
     7 N      -6.249557     0.486782     1.819264 N          1 UNL1 0.000
     8 C      -7.047285    -0.636624     1.934875 C          1 UNL1 0.000
     9 C      -6.669182    -1.983097     2.069862 C          1 UNL1 0.000
    10 C      -7.660012    -2.958460     2.094695 C          1 UNL1 0.000
    11 C      -8.998578    -2.629351     1.904372 C          1 UNL1 0.000
    12 C      -9.380574    -1.276196     1.692135 C          1 UNL1 0.000
    13 C      -8.384735    -0.229234     1.807451 C          1 UNL1 0.000
    14 C      -9.914783     4.667202     1.646105 C          1 UNL1 0.000
    15 C     -11.258421     4.404228     1.902143 C          1 UNL1 0.000
    16 C     -11.649307     3.119147     2.248726 C          1 UNL1 0.000
    17 C     -10.705185     2.088302     2.284034 C          1 UNL1 0.000
    18 C     -10.723658    -1.044501     1.317652 C          1 UNL1 0.000
    19 C     -11.677778    -2.066680     1.309981 C          1 UNL1 0.000
    20 C     -11.302574    -3.366040     1.617590 C          1 UNL1 0.000
    21 C      -9.965320    -3.649037     1.884821 C          1 UNL1 0.000
    22 C      -4.833234     0.469099     1.772830 C          1 UNL1 0.000
    23 C      -4.102524     0.217452     2.934249 C          1 UNL1 0.000
    24 C      -2.702455     0.213904     2.874901 C          1 UNL1 0.000
    25 C      -2.022809     0.429783     1.662590 C          1 UNL1 0.000
    26 C      -2.787107     0.673666     0.509219 C          1 UNL1 0.000
    27 C      -4.185927     0.702165     0.559235 C          1 UNL1 0.000
    28 C      -0.543337     0.437838     1.667429 C          1 UNL1 0.000
    29 C       0.239590     0.368682     0.577952 C          1 UNL1 0.000
    30 H      -7.298139     4.980476     1.353131 H          1 UNL1 0.000
    31 H      -5.584316     3.233951     1.476565 H          1 UNL1 0.000
    32 H      -5.624025    -2.270898     2.146199 H          1 UNL1 0.000
    33 H      -7.359090    -3.997717     2.212648 H          1 UNL1 0.000
    34 H      -9.617338     5.691700     1.431607 H          1 UNL1 0.000
    35 H     -11.988340     5.208451     1.867092 H          1 UNL1 0.000
    36 H     -12.685776     2.915069     2.504818 H          1 UNL1 0.000
    37 H     -11.033209     1.124191     2.655830 H          1 UNL1 0.000
    38 H     -11.040223    -0.067967     0.970629 H          1 UNL1 0.000
    39 H     -12.708962    -1.844463     1.047742 H          1 UNL1 0.000
    40 H     -12.039293    -4.164732     1.613293 H          1 UNL1 0.000
    41 H      -9.679599    -4.682909     2.067944 H          1 UNL1 0.000
    42 H      -4.603118     0.054481     3.885960 H          1 UNL1 0.000
    43 H      -2.145261     0.040707     3.793828 H          1 UNL1 0.000
    44 H      -2.310871     0.853209    -0.450664 H          1 UNL1 0.000
    45 H      -4.753339     0.882511    -0.351098 H          1 UNL1 0.000
    46 H      -0.077842     0.498406     2.650065 H          1 UNL1 0.000
    47 H      -0.163216     0.279666    -0.425877 H          1 UNL1 0.000
    48 C       1.704108     0.399154     0.640221 C          1 UNL1 0.000
    49 C       2.433832    -0.779976     0.453241 C          1 UNL1 0.000
    50 C       3.832427    -0.749468     0.425437 C          1 UNL1 0.000
    51 C       4.511984     0.462922     0.582139 C          1 UNL1 0.000
    52 C       3.785781     1.640662     0.787976 C          1 UNL1 0.000
    53 C       2.386855     1.607800     0.819799 C          1 UNL1 0.000
    54 C       5.943727     0.500314     0.513294 C          1 UNL1 0.000
    55 N       7.102869     0.530883     0.448334 N          1 UNL1 0.000
    56 H       1.918479    -1.728174     0.314165 H          1 UNL1 0.000
    57 H       4.383674    -1.674686     0.266626 H          1 UNL1 0.000
    58 H       4.300947     2.592092     0.909099 H          1 UNL1 0.000
    59 H       1.835131     2.535120     0.960328 H          1 UNL1 0.000
@<TRIPOS>BOND
     1      1      2   2
     2      2      3   1
     3      3      4   2
     4      4      5   1
     5      5      6   2
     6      6      1   1
     7      4      7   1
     8      7      8   1
     9      8      9   2
    10      9     10   1
    11     10     11   2
    12     11     12   1
    13     12     13   2
    14     13      8   1
    15     13      5   1
    16      1     14   1
    17     14     15   2
    18     15     16   1
    19     16     17   2
    20     17      6   1
    21     12     18   1
    22     18     19   2
    23     19     20   1
    24     20     21   2
    25     21     11   1
    26     22     23   2
    27     23     24   1
    28     24     25   2
    29     25     26   1
    30     26     27   2
    31     27     22   1
    32     25     28   1
    33     28     29   2
    34      7     22   1
    35      2     30   1
    36      3     31   1
    37      9     32   1
    38     10     33   1
    39     14     34   1
    40     15     35   1
    41     16     36   1
    42     17     37   1
    43     18     38   1
    44     19     39   1
    45     20     40   1
    46     21     41   1
    47     23     42   1
    48     24     43   1
    49     26     44   1
    50     27     45   1
    51     28     46   1
    52     29     47   1
    53     48     49   2
    54     49     50   1
    55     50     51   2
    56     51     52   1
    57     52     53   2
    58     53     48   1
    59     54     55   3
    60     51     54   1
    61     49     56   1
    62     50     57   1
    63     52     58   1
    64     53     59   1
    65     29     48   1
