# Produced with molli package
@<TRIPOS>MOLECULE
D_7_L
62 69 0 0 0
SMALL
USER_CHARGES

@<TRIPOS>ATOM
     1 C      -8.977312     3.657215     2.002739 C          1 UNL1 0.000
     2 C      -7.654281     3.962579     2.314845 C          1 UNL1 0.000
     3 C      -6.665014     2.982763     2.290131 C          1 UNL1 0.000
     4 C      -7.039608     1.651299     2.040041 C          1 UNL1 0.000
     5 C      -8.372811     1.265222     1.847805 C          1 UNL1 0.000
     6 C      -9.351347     2.316501     1.720439 C          1 UNL1 0.000
     7 N      -6.253508     0.531732     1.827849 N          1 UNL1 0.000
     8 C      -7.048697    -0.585559     1.639930 C          1 UNL1 0.000
     9 C      -6.682291    -1.920199     1.394334 C          1 UNL1 0.000
    10 C      -7.678681    -2.892568     1.364291 C          1 UNL1 0.000
    11 C      -9.002765    -2.576035     1.660779 C          1 UNL1 0.000
    12 C      -9.368490    -1.232588     1.941740 C          1 UNL1 0.000
    13 C      -8.379099    -0.189636     1.828102 C          1 UNL1 0.000
    14 C      -9.933578     4.682400     1.918398 C          1 UNL1 0.000
    15 C     -11.237994     4.413913     1.506044 C          1 UNL1 0.000
    16 C     -11.595574     3.120617     1.148065 C          1 UNL1 0.000
    17 C     -10.660154     2.087421     1.240755 C          1 UNL1 0.000
    18 C     -10.682972    -0.992578     2.400145 C          1 UNL1 0.000
    19 C     -11.630267    -2.016689     2.471539 C          1 UNL1 0.000
    20 C     -11.279099    -3.312261     2.115437 C          1 UNL1 0.000
    21 C      -9.970065    -3.592290     1.726115 C          1 UNL1 0.000
    22 C      -4.840825     0.540603     1.756738 C          1 UNL1 0.000
    23 C      -4.089811     0.842353     2.892593 C          1 UNL1 0.000
    24 C      -2.694669     0.852333     2.803155 C          1 UNL1 0.000
    25 C      -2.043411     0.590477     1.585322 C          1 UNL1 0.000
    26 C      -2.826310     0.311237     0.454098 C          1 UNL1 0.000
    27 C      -4.220044     0.266983     0.537617 C          1 UNL1 0.000
    28 C      -0.569929     0.648769     1.550115 C          1 UNL1 0.000
    29 C       0.203748     0.233632     0.535709 C          1 UNL1 0.000
    30 H      -7.357997     4.991249     2.511208 H          1 UNL1 0.000
    31 H      -5.625023     3.260879     2.436458 H          1 UNL1 0.000
    32 H      -5.643376    -2.204622     1.250858 H          1 UNL1 0.000
    33 H      -7.389128    -3.923465     1.169407 H          1 UNL1 0.000
    34 H      -9.660782     5.710234     2.148348 H          1 UNL1 0.000
    35 H     -11.962016     5.220770     1.431490 H          1 UNL1 0.000
    36 H     -12.596523     2.913487     0.778691 H          1 UNL1 0.000
    37 H     -10.952353     1.107729     0.876134 H          1 UNL1 0.000
    38 H     -10.972401    -0.010835     2.761399 H          1 UNL1 0.000
    39 H     -12.636186    -1.800654     2.821820 H          1 UNL1 0.000
    40 H     -12.012660    -4.111915     2.172504 H          1 UNL1 0.000
    41 H      -9.703653    -4.621801     1.496060 H          1 UNL1 0.000
    42 H      -4.570709     1.038614     3.847938 H          1 UNL1 0.000
    43 H      -2.117829     1.063584     3.701638 H          1 UNL1 0.000
    44 H      -2.370015     0.134232    -0.515584 H          1 UNL1 0.000
    45 H      -4.805172     0.060748    -0.355799 H          1 UNL1 0.000
    46 H      -0.094686     1.045556     2.446506 H          1 UNL1 0.000
    47 H      -0.196467    -0.206161    -0.371805 H          1 UNL1 0.000
    48 C       1.666868     0.296888     0.595144 C          1 UNL1 0.000
    49 C       2.336532     1.524049     0.617097 C          1 UNL1 0.000
    50 C       3.735016     1.587669     0.645298 C          1 UNL1 0.000
    51 C       4.437598     0.377321     0.652950 C          1 UNL1 0.000
    52 C       3.800462    -0.863096     0.633763 C          1 UNL1 0.000
    53 C       2.393364    -0.903233     0.600226 C          1 UNL1 0.000
    54 N       5.792794     0.134079     0.675803 N          1 UNL1 0.000
    55 C       6.032132    -1.214850     0.678089 C          1 UNL1 0.000
    56 C       4.816050    -1.858081     0.653156 C          1 UNL1 0.000
    57 H       1.769864     2.453099     0.600508 H          1 UNL1 0.000
    58 H       4.247791     2.543762     0.655993 H          1 UNL1 0.000
    59 H       1.880625    -1.860669     0.584097 H          1 UNL1 0.000
    60 H       6.503459     0.852268     0.688998 H          1 UNL1 0.000
    61 H       7.042825    -1.599431     0.696549 H          1 UNL1 0.000
    62 H       4.668003    -2.929946     0.648198 H          1 UNL1 0.000
@<TRIPOS>BOND
     1      1      2   2
     2      2      3   1
     3      3      4   2
     4      4      5   1
     5      5      6   2
     6      6      1   1
     7      4      7   1
     8      7      8   1
     9      8      9   2
    10      9     10   1
    11     10     11   2
    12     11     12   1
    13     12     13   2
    14     13      8   1
    15     13      5   1
    16      1     14   1
    17     14     15   2
    18     15     16   1
    19     16     17   2
    20     17      6   1
    21     12     18   1
    22     18     19   2
    23     19     20   1
    24     20     21   2
    25     21     11   1
    26     22     23   2
    27     23     24   1
    28     24     25   2
    29     25     26   1
    30     26     27   2
    31     27     22   1
    32     25     28   1
    33     28     29   2
    34      7     22   1
    35      2     30   1
    36      3     31   1
    37      9     32   1
    38     10     33   1
    39     14     34   1
    40     15     35   1
    41     16     36   1
    42     17     37   1
    43     18     38   1
    44     19     39   1
    45     20     40   1
    46     21     41   1
    47     23     42   1
    48     24     43   1
    49     26     44   1
    50     27     45   1
    51     28     46   1
    52     29     47   1
    53     48     49   2
    54     49     50   1
    55     50     51   2
    56     51     52   1
    57     52     53   2
    58     53     48   1
    59     51     54   1
    60     54     55   1
    61     55     56   2
    62     56     52   1
    63     49     57   1
    64     50     58   1
    65     53     59   1
    66     54     60   1
    67     55     61   1
    68     56     62   1
    69     29     48   1
