# Produced with molli package
@<TRIPOS>MOLECULE
D_7_O
57 63 0 0 0
SMALL
USER_CHARGES

@<TRIPOS>ATOM
     1 C      -9.052486     3.649110     1.999426 C          1 UNL1 0.000
     2 C      -7.732213     3.956903     2.317992 C          1 UNL1 0.000
     3 C      -6.740060     2.980804     2.288948 C          1 UNL1 0.000
     4 C      -7.107893     1.648996     2.029032 C          1 UNL1 0.000
     5 C      -8.438331     1.259869     1.823004 C          1 UNL1 0.000
     6 C      -9.420230     2.309926     1.700661 C          1 UNL1 0.000
     7 N      -6.314590     0.533569     1.818173 N          1 UNL1 0.000
     8 C      -7.103894    -0.585293     1.614525 C          1 UNL1 0.000
     9 C      -6.728885    -1.917726     1.369460 C          1 UNL1 0.000
    10 C      -7.720370    -2.893929     1.319136 C          1 UNL1 0.000
    11 C      -9.050188    -2.584002     1.594823 C          1 UNL1 0.000
    12 C      -9.425624    -1.243899     1.879740 C          1 UNL1 0.000
    13 C      -8.438571    -0.195514     1.788401 C          1 UNL1 0.000
    14 C     -10.011649     4.672285     1.925658 C          1 UNL1 0.000
    15 C     -11.314363     4.404638     1.508395 C          1 UNL1 0.000
    16 C     -11.666021     3.114937     1.132444 C          1 UNL1 0.000
    17 C     -10.726677     2.083938     1.213040 C          1 UNL1 0.000
    18 C     -10.748589    -1.014419     2.318902 C          1 UNL1 0.000
    19 C     -11.693351    -2.042572     2.363755 C          1 UNL1 0.000
    20 C     -11.331046    -3.333485     2.002557 C          1 UNL1 0.000
    21 C     -10.014014    -3.604902     1.635325 C          1 UNL1 0.000
    22 C      -4.900036     0.548961     1.767941 C          1 UNL1 0.000
    23 C      -4.169598     0.892786     2.906704 C          1 UNL1 0.000
    24 C      -2.775212     0.937761     2.834268 C          1 UNL1 0.000
    25 C      -2.108228     0.660534     1.630998 C          1 UNL1 0.000
    26 C      -2.864793     0.337037     0.494378 C          1 UNL1 0.000
    27 C      -4.257652     0.260405     0.561984 C          1 UNL1 0.000
    28 C      -0.644598     0.797516     1.587411 C          1 UNL1 0.000
    29 C       0.166896     0.079552     0.793985 C          1 UNL1 0.000
    30 H      -7.439785     4.984782     2.524087 H          1 UNL1 0.000
    31 H      -5.701964     3.263079     2.441125 H          1 UNL1 0.000
    32 H      -5.686762    -2.197949     1.242421 H          1 UNL1 0.000
    33 H      -7.423380    -3.922768     1.124728 H          1 UNL1 0.000
    34 H      -9.742574     5.698017     2.169182 H          1 UNL1 0.000
    35 H     -12.041226     5.209779     1.443934 H          1 UNL1 0.000
    36 H     -12.665593     2.909077     0.758719 H          1 UNL1 0.000
    37 H     -11.014375     1.108851     0.833202 H          1 UNL1 0.000
    38 H     -11.048169    -0.038054     2.685993 H          1 UNL1 0.000
    39 H     -12.706259    -1.833283     2.697619 H          1 UNL1 0.000
    40 H     -12.062397    -4.136336     2.039044 H          1 UNL1 0.000
    41 H      -9.739138    -4.631464     1.402084 H          1 UNL1 0.000
    42 H      -4.666729     1.103565     3.850594 H          1 UNL1 0.000
    43 H      -2.209453     1.191678     3.728727 H          1 UNL1 0.000
    44 H      -2.381303     0.168122    -0.464462 H          1 UNL1 0.000
    45 H      -4.827065     0.030173    -0.335603 H          1 UNL1 0.000
    46 H      -0.221645     1.537837     2.265359 H          1 UNL1 0.000
    47 H      -0.237412    -0.680330     0.133200 H          1 UNL1 0.000
    48 C       1.628316     0.245722     0.753487 C          1 UNL1 0.000
    49 N       2.169461     1.227565     1.513110 N          1 UNL1 0.000
    50 C       3.510128     1.386230     1.462171 C          1 UNL1 0.000
    51 C       4.350000     0.606498     0.686388 C          1 UNL1 0.000
    52 C       3.781279    -0.397730    -0.086207 C          1 UNL1 0.000
    53 C       2.400720    -0.582551    -0.055841 C          1 UNL1 0.000
    54 H       3.903649     2.185899     2.083054 H          1 UNL1 0.000
    55 H       5.420338     0.778355     0.684453 H          1 UNL1 0.000
    56 H       4.405366    -1.032182    -0.708856 H          1 UNL1 0.000
    57 H       1.946134    -1.362753    -0.657056 H          1 UNL1 0.000
@<TRIPOS>BOND
     1      1      2   2
     2      2      3   1
     3      3      4   2
     4      4      5   1
     5      5      6   2
     6      6      1   1
     7      4      7   1
     8      7      8   1
     9      8      9   2
    10      9     10   1
    11     10     11   2
    12     11     12   1
    13     12     13   2
    14     13      8   1
    15     13      5   1
    16      1     14   1
    17     14     15   2
    18     15     16   1
    19     16     17   2
    20     17      6   1
    21     12     18   1
    22     18     19   2
    23     19     20   1
    24     20     21   2
    25     21     11   1
    26     22     23   2
    27     23     24   1
    28     24     25   2
    29     25     26   1
    30     26     27   2
    31     27     22   1
    32     25     28   1
    33     28     29   2
    34      7     22   1
    35      2     30   1
    36      3     31   1
    37      9     32   1
    38     10     33   1
    39     14     34   1
    40     15     35   1
    41     16     36   1
    42     17     37   1
    43     18     38   1
    44     19     39   1
    45     20     40   1
    46     21     41   1
    47     23     42   1
    48     24     43   1
    49     26     44   1
    50     27     45   1
    51     28     46   1
    52     29     47   1
    53     48     49   2
    54     49     50   1
    55     50     51   2
    56     51     52   1
    57     52     53   2
    58     53     48   1
    59     50     54   1
    60     51     55   1
    61     52     56   1
    62     53     57   1
    63     29     48   1
