# Produced with molli package
@<TRIPOS>MOLECULE
D_7_N
55 61 0 0 0
SMALL
USER_CHARGES

@<TRIPOS>ATOM
     1 C      -9.031587     3.650880     1.557427 C          1 UNL1 0.000
     2 C      -7.705425     3.943889     1.249202 C          1 UNL1 0.000
     3 C      -6.720611     2.960032     1.300739 C          1 UNL1 0.000
     4 C      -7.098907     1.632468     1.571895 C          1 UNL1 0.000
     5 C      -8.435287     1.261237     1.771503 C          1 UNL1 0.000
     6 C      -9.411020     2.318718     1.867903 C          1 UNL1 0.000
     7 N      -6.317094     0.507288     1.791013 N          1 UNL1 0.000
     8 C      -7.127204    -0.594363     2.030853 C          1 UNL1 0.000
     9 C      -6.785630    -1.930604     2.309255 C          1 UNL1 0.000
    10 C      -7.794230    -2.889978     2.353268 C          1 UNL1 0.000
    11 C      -9.107598    -2.566097     2.024537 C          1 UNL1 0.000
    12 C      -9.451221    -1.225251     1.709763 C          1 UNL1 0.000
    13 C      -8.452876    -0.190534     1.821680 C          1 UNL1 0.000
    14 C      -9.986068     4.680140     1.608859 C          1 UNL1 0.000
    15 C     -11.294815     4.424412     2.015665 C          1 UNL1 0.000
    16 C     -11.658756     3.140653     2.400556 C          1 UNL1 0.000
    17 C     -10.724953     2.103590     2.340510 C          1 UNL1 0.000
    18 C     -10.750642    -0.980841     1.212156 C          1 UNL1 0.000
    19 C     -11.704638    -1.997883     1.129538 C          1 UNL1 0.000
    20 C     -11.376402    -3.289997     1.518695 C          1 UNL1 0.000
    21 C     -10.082558    -3.574391     1.952624 C          1 UNL1 0.000
    22 C      -4.898910     0.473637     1.733038 C          1 UNL1 0.000
    23 C      -4.166985    -0.008261     2.821104 C          1 UNL1 0.000
    24 C      -2.773879    -0.077343     2.737122 C          1 UNL1 0.000
    25 C      -2.105460     0.321467     1.570639 C          1 UNL1 0.000
    26 C      -2.857300     0.791136     0.483876 C          1 UNL1 0.000
    27 C      -4.248733     0.884764     0.566274 C          1 UNL1 0.000
    28 C      -0.646700     0.152463     1.495921 C          1 UNL1 0.000
    29 C       0.180069     0.997723     0.856089 C          1 UNL1 0.000
    30 H      -7.403826     4.966876     1.032117 H          1 UNL1 0.000
    31 H      -5.679898     3.235766     1.156154 H          1 UNL1 0.000
    32 H      -5.754308    -2.235170     2.460721 H          1 UNL1 0.000
    33 H      -7.519318    -3.919586     2.574251 H          1 UNL1 0.000
    34 H      -9.709022     5.701494     1.356197 H          1 UNL1 0.000
    35 H     -12.017737     5.234272     2.064203 H          1 UNL1 0.000
    36 H     -12.663788     2.944193     2.764686 H          1 UNL1 0.000
    37 H     -11.023684     1.132164     2.722050 H          1 UNL1 0.000
    38 H     -11.020293    -0.002899     0.825615 H          1 UNL1 0.000
    39 H     -12.696882    -1.779679     0.743444 H          1 UNL1 0.000
    40 H     -12.114671    -4.084503     1.451560 H          1 UNL1 0.000
    41 H      -9.832133    -4.602084     2.207349 H          1 UNL1 0.000
    42 H      -4.661633    -0.307419     3.742498 H          1 UNL1 0.000
    43 H      -2.213240    -0.444042     3.594646 H          1 UNL1 0.000
    44 H      -2.372129     1.061970    -0.451086 H          1 UNL1 0.000
    45 H      -4.811581     1.222419    -0.301272 H          1 UNL1 0.000
    46 H      -0.256976    -0.718984     2.014571 H          1 UNL1 0.000
    47 H      -0.247833     1.881756     0.385850 H          1 UNL1 0.000
    48 C       1.602005     0.852223     0.742153 C          1 UNL1 0.000
    49 C       2.398226     1.868645     0.253119 C          1 UNL1 0.000
    50 S       4.055418     1.440456     0.208018 S          1 UNL1 0.000
    51 C       3.723609    -0.115188     0.832877 C          1 UNL1 0.000
    52 C       2.379117    -0.300716     1.074109 C          1 UNL1 0.000
    53 H       2.097420     2.852314    -0.080934 H          1 UNL1 0.000
    54 H       4.527642    -0.820651     0.991045 H          1 UNL1 0.000
    55 H       1.984762    -1.231054     1.463057 H          1 UNL1 0.000
@<TRIPOS>BOND
     1      1      2   2
     2      2      3   1
     3      3      4   2
     4      4      5   1
     5      5      6   2
     6      6      1   1
     7      4      7   1
     8      7      8   1
     9      8      9   2
    10      9     10   1
    11     10     11   2
    12     11     12   1
    13     12     13   2
    14     13      8   1
    15     13      5   1
    16      1     14   1
    17     14     15   2
    18     15     16   1
    19     16     17   2
    20     17      6   1
    21     12     18   1
    22     18     19   2
    23     19     20   1
    24     20     21   2
    25     21     11   1
    26     22     23   2
    27     23     24   1
    28     24     25   2
    29     25     26   1
    30     26     27   2
    31     27     22   1
    32     25     28   1
    33     28     29   2
    34      7     22   1
    35      2     30   1
    36      3     31   1
    37      9     32   1
    38     10     33   1
    39     14     34   1
    40     15     35   1
    41     16     36   1
    42     17     37   1
    43     18     38   1
    44     19     39   1
    45     20     40   1
    46     21     41   1
    47     23     42   1
    48     24     43   1
    49     26     44   1
    50     27     45   1
    51     28     46   1
    52     29     47   1
    53     48     49   2
    54     49     50   1
    55     50     51   1
    56     51     52   2
    57     52     48   1
    58     49     53   1
    59     51     54   1
    60     52     55   1
    61     29     48   1
