# Produced with molli package
@<TRIPOS>MOLECULE
D_7_K
60 66 0 0 0
SMALL
USER_CHARGES

@<TRIPOS>ATOM
     1 C      -9.053190     3.565819     1.751824 C          1 UNL1 0.000
     2 C      -7.730684     3.890572     1.460653 C          1 UNL1 0.000
     3 C      -6.731865     2.921527     1.480847 C          1 UNL1 0.000
     4 C      -7.093392     1.581823     1.706186 C          1 UNL1 0.000
     5 C      -8.421527     1.178728     1.897002 C          1 UNL1 0.000
     6 C      -9.413705     2.219095     2.025596 C          1 UNL1 0.000
     7 N      -6.291876     0.465170     1.870234 N          1 UNL1 0.000
     8 C      -7.071229    -0.662167     2.062865 C          1 UNL1 0.000
     9 C      -6.686045    -1.997067     2.275461 C          1 UNL1 0.000
    10 C      -7.670506    -2.981524     2.303144 C          1 UNL1 0.000
    11 C      -9.002668    -2.675620     2.034010 C          1 UNL1 0.000
    12 C      -9.388285    -1.332092     1.781081 C          1 UNL1 0.000
    13 C      -8.409828    -0.277862     1.901028 C          1 UNL1 0.000
    14 C     -10.023757     4.578733     1.817572 C          1 UNL1 0.000
    15 C     -11.332838     4.293174     2.201252 C          1 UNL1 0.000
    16 C     -11.678657     2.996247     2.556816 C          1 UNL1 0.000
    17 C     -10.726686     1.975996     2.486707 C          1 UNL1 0.000
    18 C     -10.711626    -1.104316     1.341693 C          1 UNL1 0.000
    19 C     -11.648194    -2.138468     1.270082 C          1 UNL1 0.000
    20 C     -11.276566    -3.434234     1.602428 C          1 UNL1 0.000
    21 C      -9.958127    -3.703233     1.966423 C          1 UNL1 0.000
    22 C      -4.877856     0.472869     1.810090 C          1 UNL1 0.000
    23 C      -4.133052     0.174695     2.951486 C          1 UNL1 0.000
    24 C      -2.736797     0.219882     2.884907 C          1 UNL1 0.000
    25 C      -2.078268     0.526540     1.681862 C          1 UNL1 0.000
    26 C      -2.852964     0.817975     0.548064 C          1 UNL1 0.000
    27 C      -4.248457     0.799893     0.608248 C          1 UNL1 0.000
    28 C      -0.604826     0.576877     1.675576 C          1 UNL1 0.000
    29 C       0.163120     0.484820     0.578422 C          1 UNL1 0.000
    30 H      -7.444460     4.924334     1.276564 H          1 UNL1 0.000
    31 H      -5.694264     3.212129     1.340972 H          1 UNL1 0.000
    32 H      -5.641887    -2.273211     2.393469 H          1 UNL1 0.000
    33 H      -7.365824    -4.012753     2.471639 H          1 UNL1 0.000
    34 H      -9.760563     5.609603     1.589787 H          1 UNL1 0.000
    35 H     -12.070163     5.089560     2.255147 H          1 UNL1 0.000
    36 H     -12.684473     2.775911     2.904740 H          1 UNL1 0.000
    37 H     -11.012257     0.994234     2.850516 H          1 UNL1 0.000
    38 H     -11.018009    -0.123417     0.993261 H          1 UNL1 0.000
    39 H     -12.661687    -1.929559     0.937622 H          1 UNL1 0.000
    40 H     -12.001316    -4.241872     1.545032 H          1 UNL1 0.000
    41 H      -9.675413    -4.732965     2.175132 H          1 UNL1 0.000
    42 H      -4.621091    -0.051959     3.896646 H          1 UNL1 0.000
    43 H      -2.165724     0.013573     3.788141 H          1 UNL1 0.000
    44 H      -2.386424     1.072119    -0.399757 H          1 UNL1 0.000
    45 H      -4.827990     1.016314    -0.286506 H          1 UNL1 0.000
    46 H      -0.133090     0.678715     2.651655 H          1 UNL1 0.000
    47 H      -0.246049     0.350288    -0.417743 H          1 UNL1 0.000
    48 C       1.623567     0.526430     0.650323 C          1 UNL1 0.000
    49 C       2.297395     1.750323     0.754917 C          1 UNL1 0.000
    50 C       3.694224     1.784413     0.788797 C          1 UNL1 0.000
    51 C       4.411247     0.583633     0.717211 C          1 UNL1 0.000
    52 C       3.747923    -0.645823     0.623080 C          1 UNL1 0.000
    53 C       2.351640    -0.668580     0.591787 C          1 UNL1 0.000
    54 N       5.874755     0.613339     0.731516 N          1 UNL1 0.000
    55 O       6.423456     1.607681     1.227941 O          1 UNL1 0.000
    56 O       6.472733    -0.356158     0.244368 O          1 UNL1 0.000
    57 H       1.738101     2.683161     0.798299 H          1 UNL1 0.000
    58 H       4.204237     2.742985     0.859100 H          1 UNL1 0.000
    59 H       4.298507    -1.582739     0.572578 H          1 UNL1 0.000
    60 H       1.833399    -1.622899     0.517145 H          1 UNL1 0.000
@<TRIPOS>BOND
     1      1      2   2
     2      2      3   1
     3      3      4   2
     4      4      5   1
     5      5      6   2
     6      6      1   1
     7      4      7   1
     8      7      8   1
     9      8      9   2
    10      9     10   1
    11     10     11   2
    12     11     12   1
    13     12     13   2
    14     13      8   1
    15     13      5   1
    16      1     14   1
    17     14     15   2
    18     15     16   1
    19     16     17   2
    20     17      6   1
    21     12     18   1
    22     18     19   2
    23     19     20   1
    24     20     21   2
    25     21     11   1
    26     22     23   2
    27     23     24   1
    28     24     25   2
    29     25     26   1
    30     26     27   2
    31     27     22   1
    32     25     28   1
    33     28     29   2
    34      7     22   1
    35      2     30   1
    36      3     31   1
    37      9     32   1
    38     10     33   1
    39     14     34   1
    40     15     35   1
    41     16     36   1
    42     17     37   1
    43     18     38   1
    44     19     39   1
    45     20     40   1
    46     21     41   1
    47     23     42   1
    48     24     43   1
    49     26     44   1
    50     27     45   1
    51     28     46   1
    52     29     47   1
    53     48     49   2
    54     49     50   1
    55     50     51   2
    56     51     52   1
    57     52     53   2
    58     53     48   1
    59     54     55   2
    60     54     56   1
    61     51     54   1
    62     49     57   1
    63     50     58   1
    64     52     59   1
    65     53     60   1
    66     29     48   1
