# Produced with molli package
@<TRIPOS>MOLECULE
D_8_M
56 63 0 0 0
SMALL
USER_CHARGES

@<TRIPOS>ATOM
     1 C      -6.881364     3.684989     0.560421 C          1 UNL1 0.000
     2 C      -5.537684     4.019172     0.701062 C          1 UNL1 0.000
     3 C      -4.547397     3.043255     0.674876 C          1 UNL1 0.000
     4 C      -4.931221     1.694512     0.591641 C          1 UNL1 0.000
     5 C      -6.271229     1.282751     0.526056 C          1 UNL1 0.000
     6 C      -7.268934     2.326224     0.400331 C          1 UNL1 0.000
     7 N      -4.139760     0.566054     0.518748 N          1 UNL1 0.000
     8 C      -4.917207    -0.574008     0.490471 C          1 UNL1 0.000
     9 C      -4.519291    -1.916636     0.378465 C          1 UNL1 0.000
    10 C      -5.499877    -2.902140     0.344312 C          1 UNL1 0.000
    11 C      -6.844339    -2.586050     0.516809 C          1 UNL1 0.000
    12 C      -7.240553    -1.238476     0.734627 C          1 UNL1 0.000
    13 C      -6.259641    -0.181021     0.602045 C          1 UNL1 0.000
    14 C      -7.849462     4.703439     0.541462 C          1 UNL1 0.000
    15 C      -9.193983     4.412458     0.323546 C          1 UNL1 0.000
    16 C      -9.576659     3.105011     0.063514 C          1 UNL1 0.000
    17 C      -8.621597     2.084068     0.071593 C          1 UNL1 0.000
    18 C      -8.586055    -1.020368     1.105404 C          1 UNL1 0.000
    19 C      -9.534589    -2.046917     1.080956 C          1 UNL1 0.000
    20 C      -9.149720    -3.336804     0.745436 C          1 UNL1 0.000
    21 C      -7.806390    -3.609916     0.498460 C          1 UNL1 0.000
    22 C      -2.732562     0.575900     0.479984 C          1 UNL1 0.000
    23 C      -1.983795     0.496866     1.667725 C          1 UNL1 0.000
    24 C      -0.568384     0.498221     1.660250 C          1 UNL1 0.000
    25 C       0.214204     0.576964     0.480323 C          1 UNL1 0.000
    26 C      -0.511759     0.657698    -0.747523 C          1 UNL1 0.000
    27 C      -2.027734     0.656615    -0.747257 C          1 UNL1 0.000
    28 N       0.003754     0.735614    -1.987124 N          1 UNL1 0.000
    29 S      -1.276493     0.797119    -3.038790 S          1 UNL1 0.000
    30 N      -2.550628     0.731903    -1.981540 N          1 UNL1 0.000
    31 H      -5.234997     5.061479     0.781791 H          1 UNL1 0.000
    32 H      -3.501224     3.332255     0.719889 H          1 UNL1 0.000
    33 H      -3.472360    -2.190654     0.284119 H          1 UNL1 0.000
    34 H      -5.189336    -3.937320     0.216202 H          1 UNL1 0.000
    35 H      -7.559711     5.742224     0.686125 H          1 UNL1 0.000
    36 H      -9.931579     5.210276     0.318593 H          1 UNL1 0.000
    37 H     -10.614581     2.874806    -0.162559 H          1 UNL1 0.000
    38 H      -8.946000     1.098837    -0.241278 H          1 UNL1 0.000
    39 H      -8.908190    -0.049832     1.465290 H          1 UNL1 0.000
    40 H     -10.570590    -1.834624     1.331882 H          1 UNL1 0.000
    41 H      -9.884582    -4.136439     0.710860 H          1 UNL1 0.000
    42 H      -7.513905    -4.637298     0.291374 H          1 UNL1 0.000
    43 H      -2.499502     0.433459     2.626961 H          1 UNL1 0.000
    44 H      -0.053046     0.436445     2.621258 H          1 UNL1 0.000
    45 C       1.675061     0.566428     0.500325 C          1 UNL1 0.000
    46 C       2.405498     1.763927     0.451435 C          1 UNL1 0.000
    47 C       3.804849     1.752959     0.481018 C          1 UNL1 0.000
    48 C       4.495680     0.540672     0.558192 C          1 UNL1 0.000
    49 C       3.780416    -0.658890     0.604147 C          1 UNL1 0.000
    50 C       2.381316    -0.644179     0.577151 C          1 UNL1 0.000
    51 C       5.929640     0.527184     0.592434 C          1 UNL1 0.000
    52 N       7.089061     0.515257     0.626668 N          1 UNL1 0.000
    53 H       1.886424     2.718560     0.383832 H          1 UNL1 0.000
    54 H       4.347194     2.695986     0.439941 H          1 UNL1 0.000
    55 H       4.303517    -1.612083     0.657663 H          1 UNL1 0.000
    56 H       1.843043    -1.590051     0.606100 H          1 UNL1 0.000
@<TRIPOS>BOND
     1      1      2   2
     2      2      3   1
     3      3      4   2
     4      4      5   1
     5      5      6   2
     6      6      1   1
     7      4      7   1
     8      7      8   1
     9      8      9   2
    10      9     10   1
    11     10     11   2
    12     11     12   1
    13     12     13   2
    14     13      8   1
    15     13      5   1
    16      1     14   1
    17     14     15   2
    18     15     16   1
    19     16     17   2
    20     17      6   1
    21     12     18   1
    22     18     19   2
    23     19     20   1
    24     20     21   2
    25     21     11   1
    26     22     23   2
    27     23     24   1
    28     24     25   2
    29     25     26   1
    30     26     27   1
    31     27     22   1
    32     26     28   2
    33     28     29   1
    34     29     30   1
    35     30     27   2
    36      7     22   1
    37      2     31   1
    38      3     32   1
    39      9     33   1
    40     10     34   1
    41     14     35   1
    42     15     36   1
    43     16     37   1
    44     17     38   1
    45     18     39   1
    46     19     40   1
    47     20     41   1
    48     21     42   1
    49     23     43   1
    50     24     44   1
    51     45     46   2
    52     46     47   1
    53     47     48   2
    54     48     49   1
    55     49     50   2
    56     50     45   1
    57     51     52   3
    58     48     51   1
    59     46     53   1
    60     47     54   1
    61     49     55   1
    62     50     56   1
    63     25     45   1
