# Produced with molli package
@<TRIPOS>MOLECULE
D_8_S
60 67 0 0 0
SMALL
USER_CHARGES

@<TRIPOS>ATOM
     1 C      -6.819718     3.600244     0.477023 C          1 UNL1 0.000
     2 C      -5.490264     3.911301     0.204761 C          1 UNL1 0.000
     3 C      -4.504411     2.929797     0.221327 C          1 UNL1 0.000
     4 C      -4.886467     1.593094     0.424918 C          1 UNL1 0.000
     5 C      -6.220408     1.202156     0.610079 C          1 UNL1 0.000
     6 C      -7.199546     2.257137     0.745983 C          1 UNL1 0.000
     7 N      -4.101121     0.462896     0.541525 N          1 UNL1 0.000
     8 C      -4.887347    -0.660857     0.706490 C          1 UNL1 0.000
     9 C      -4.502417    -2.002290     0.870404 C          1 UNL1 0.000
    10 C      -5.490698    -2.979992     0.915293 C          1 UNL1 0.000
    11 C      -6.830462    -2.657664     0.717259 C          1 UNL1 0.000
    12 C      -7.217827    -1.306912     0.500346 C          1 UNL1 0.000
    13 C      -6.226285    -0.259151     0.597253 C          1 UNL1 0.000
    14 C      -7.779757     4.624739     0.518808 C          1 UNL1 0.000
    15 C      -9.100023     4.356132     0.873650 C          1 UNL1 0.000
    16 C      -9.464705     3.066731     1.235811 C          1 UNL1 0.000
    17 C      -8.521036     2.036545     1.194134 C          1 UNL1 0.000
    18 C      -8.560174    -1.072096     0.128041 C          1 UNL1 0.000
    19 C      -9.507699    -2.099248     0.104022 C          1 UNL1 0.000
    20 C      -9.128498    -3.399609     0.406487 C          1 UNL1 0.000
    21 C      -7.793570    -3.679645     0.690076 C          1 UNL1 0.000
    22 C      -2.693913     0.456317     0.522490 C          1 UNL1 0.000
    23 C      -1.964845     0.273143     1.712171 C          1 UNL1 0.000
    24 C      -0.550747     0.265905     1.729212 C          1 UNL1 0.000
    25 C       0.248716     0.419313     0.569502 C          1 UNL1 0.000
    26 C      -0.455662     0.584971    -0.662732 C          1 UNL1 0.000
    27 C      -1.968964     0.610863    -0.685602 C          1 UNL1 0.000
    28 N       0.081225     0.724542    -1.887845 N          1 UNL1 0.000
    29 S      -1.179347     0.861388    -2.954901 S          1 UNL1 0.000
    30 N      -2.470675     0.766073    -1.921529 N          1 UNL1 0.000
    31 H      -5.190849     4.941968     0.024196 H          1 UNL1 0.000
    32 H      -3.464762     3.204977     0.068468 H          1 UNL1 0.000
    33 H      -3.456772    -2.287413     0.942868 H          1 UNL1 0.000
    34 H      -5.187136    -4.016925     1.046350 H          1 UNL1 0.000
    35 H      -7.501314     5.650608     0.286287 H          1 UNL1 0.000
    36 H      -9.831293     5.159454     0.899483 H          1 UNL1 0.000
    37 H     -10.480037     2.859194     1.563369 H          1 UNL1 0.000
    38 H      -8.822725     1.063702     1.567108 H          1 UNL1 0.000
    39 H      -8.877835    -0.090526    -0.206039 H          1 UNL1 0.000
    40 H     -10.536812    -1.880795    -0.168949 H          1 UNL1 0.000
    41 H      -9.861129    -4.201798     0.386157 H          1 UNL1 0.000
    42 H      -7.506140    -4.713108     0.872385 H          1 UNL1 0.000
    43 H      -2.496996     0.157733     2.657716 H          1 UNL1 0.000
    44 H      -0.051718     0.144321     2.692902 H          1 UNL1 0.000
    45 C       1.707627     0.416639     0.607645 C          1 UNL1 0.000
    46 C       2.424750     1.619554     0.608520 C          1 UNL1 0.000
    47 C       3.823278     1.617712     0.619877 C          1 UNL1 0.000
    48 C       4.539473     0.412595     0.632594 C          1 UNL1 0.000
    49 C       3.829054    -0.791985     0.651791 C          1 UNL1 0.000
    50 C       2.426656    -0.786671     0.636650 C          1 UNL1 0.000
    51 C       6.033693     0.489959     0.622994 C          1 UNL1 0.000
    52 C       6.871584    -0.762474     0.600760 C          1 UNL1 0.000
    53 O       6.580314     1.593743     0.660792 O          1 UNL1 0.000
    54 H       1.899696     2.572813     0.586944 H          1 UNL1 0.000
    55 H       4.351386     2.570247     0.610250 H          1 UNL1 0.000
    56 H       4.326860    -1.755367     0.671941 H          1 UNL1 0.000
    57 H       1.895662    -1.737327     0.630520 H          1 UNL1 0.000
    58 H       7.728307    -0.594898    -0.060102 H          1 UNL1 0.000
    59 H       6.343595    -1.631127     0.209563 H          1 UNL1 0.000
    60 H       7.229886    -0.971824     1.612020 H          1 UNL1 0.000
@<TRIPOS>BOND
     1      1      2   2
     2      2      3   1
     3      3      4   2
     4      4      5   1
     5      5      6   2
     6      6      1   1
     7      4      7   1
     8      7      8   1
     9      8      9   2
    10      9     10   1
    11     10     11   2
    12     11     12   1
    13     12     13   2
    14     13      8   1
    15     13      5   1
    16      1     14   1
    17     14     15   2
    18     15     16   1
    19     16     17   2
    20     17      6   1
    21     12     18   1
    22     18     19   2
    23     19     20   1
    24     20     21   2
    25     21     11   1
    26     22     23   2
    27     23     24   1
    28     24     25   2
    29     25     26   1
    30     26     27   1
    31     27     22   1
    32     26     28   2
    33     28     29   1
    34     29     30   1
    35     30     27   2
    36      7     22   1
    37      2     31   1
    38      3     32   1
    39      9     33   1
    40     10     34   1
    41     14     35   1
    42     15     36   1
    43     16     37   1
    44     17     38   1
    45     18     39   1
    46     19     40   1
    47     20     41   1
    48     21     42   1
    49     23     43   1
    50     24     44   1
    51     45     46   2
    52     46     47   1
    53     47     48   2
    54     48     49   1
    55     49     50   2
    56     50     45   1
    57     48     51   1
    58     51     52   1
    59     51     53   2
    60     46     54   1
    61     47     55   1
    62     49     56   1
    63     50     57   1
    64     52     58   1
    65     52     59   1
    66     52     60   1
    67     25     45   1
