# Produced with molli package
@<TRIPOS>MOLECULE
D_8_R
56 63 0 0 0
SMALL
USER_CHARGES

@<TRIPOS>ATOM
     1 C      -6.843426     3.692892     0.664524 C          1 UNL1 0.000
     2 C      -5.505263     4.006872     0.888096 C          1 UNL1 0.000
     3 C      -4.516943     3.029288     0.825034 C          1 UNL1 0.000
     4 C      -4.902422     1.692528     0.626869 C          1 UNL1 0.000
     5 C      -6.241280     1.298723     0.489845 C          1 UNL1 0.000
     6 C      -7.227516     2.350790     0.399161 C          1 UNL1 0.000
     7 N      -4.119408     0.568966     0.445061 N          1 UNL1 0.000
     8 C      -4.909214    -0.558531     0.320118 C          1 UNL1 0.000
     9 C      -4.530357    -1.898616     0.130207 C          1 UNL1 0.000
    10 C      -5.519052    -2.876811     0.105576 C          1 UNL1 0.000
    11 C      -6.851802    -2.558396     0.350260 C          1 UNL1 0.000
    12 C      -7.230610    -1.212169     0.604339 C          1 UNL1 0.000
    13 C      -6.243608    -0.161960     0.486478 C          1 UNL1 0.000
    14 C      -7.808697     4.713403     0.661393 C          1 UNL1 0.000
    15 C      -9.139235     4.441245     0.349202 C          1 UNL1 0.000
    16 C      -9.510641     3.153035    -0.010006 C          1 UNL1 0.000
    17 C      -8.561667     2.127483    -0.007485 C          1 UNL1 0.000
    18 C      -8.560310    -0.984087     1.023374 C          1 UNL1 0.000
    19 C      -9.509719    -2.009308     1.049485 C          1 UNL1 0.000
    20 C      -9.142907    -3.302547     0.704419 C          1 UNL1 0.000
    21 C      -7.816467    -3.578947     0.380208 C          1 UNL1 0.000
    22 C      -2.711632     0.562700     0.439411 C          1 UNL1 0.000
    23 C      -1.991197     0.767871     1.630356 C          1 UNL1 0.000
    24 C      -0.578090     0.731086     1.663749 C          1 UNL1 0.000
    25 C       0.229961     0.491753     0.523770 C          1 UNL1 0.000
    26 C      -0.464188     0.306936    -0.708851 C          1 UNL1 0.000
    27 C      -1.976336     0.341636    -0.752354 C          1 UNL1 0.000
    28 N       0.081752     0.089688    -1.919367 N          1 UNL1 0.000
    29 S      -1.168625     0.002640    -3.004382 S          1 UNL1 0.000
    30 N      -2.467101     0.165013    -1.989825 N          1 UNL1 0.000
    31 H      -5.202187     5.039085     1.053622 H          1 UNL1 0.000
    32 H      -3.471673     3.311387     0.915736 H          1 UNL1 0.000
    33 H      -3.489752    -2.180252    -0.001471 H          1 UNL1 0.000
    34 H      -5.220391    -3.910142    -0.059993 H          1 UNL1 0.000
    35 H      -7.526406     5.739592     0.887416 H          1 UNL1 0.000
    36 H      -9.874022     5.241710     0.350654 H          1 UNL1 0.000
    37 H     -10.534543     2.943218    -0.308069 H          1 UNL1 0.000
    38 H      -8.869625     1.157308    -0.382595 H          1 UNL1 0.000
    39 H      -8.866397    -0.008837     1.385541 H          1 UNL1 0.000
    40 H     -10.531133    -1.794448     1.352464 H          1 UNL1 0.000
    41 H      -9.878177    -4.102397     0.720004 H          1 UNL1 0.000
    42 H      -7.537374    -4.607691     0.161860 H          1 UNL1 0.000
    43 H      -2.528899     0.934719     2.564954 H          1 UNL1 0.000
    44 H      -0.082712     0.887869     2.624536 H          1 UNL1 0.000
    45 C       1.683911     0.450024     0.574679 C          1 UNL1 0.000
    46 N       2.291803     1.628364     0.879378 N          1 UNL1 0.000
    47 C       3.646846     1.647883     0.890640 C          1 UNL1 0.000
    48 C       4.406389     0.522197     0.637838 C          1 UNL1 0.000
    49 C       3.792838    -0.694582     0.363422 C          1 UNL1 0.000
    50 C       2.400218    -0.726790     0.331187 C          1 UNL1 0.000
    51 N       5.838819     0.627349     0.657832 N          1 UNL1 0.000
    52 O       6.426838     0.504264    -0.421655 O          1 UNL1 0.000
    53 O       6.369702     0.829541     1.758157 O          1 UNL1 0.000
    54 H       4.094992     2.614998     1.101414 H          1 UNL1 0.000
    55 H       4.371857    -1.593621     0.173368 H          1 UNL1 0.000
    56 H       1.880675    -1.655347     0.111037 H          1 UNL1 0.000
@<TRIPOS>BOND
     1      1      2   2
     2      2      3   1
     3      3      4   2
     4      4      5   1
     5      5      6   2
     6      6      1   1
     7      4      7   1
     8      7      8   1
     9      8      9   2
    10      9     10   1
    11     10     11   2
    12     11     12   1
    13     12     13   2
    14     13      8   1
    15     13      5   1
    16      1     14   1
    17     14     15   2
    18     15     16   1
    19     16     17   2
    20     17      6   1
    21     12     18   1
    22     18     19   2
    23     19     20   1
    24     20     21   2
    25     21     11   1
    26     22     23   2
    27     23     24   1
    28     24     25   2
    29     25     26   1
    30     26     27   1
    31     27     22   1
    32     26     28   2
    33     28     29   1
    34     29     30   1
    35     30     27   2
    36      7     22   1
    37      2     31   1
    38      3     32   1
    39      9     33   1
    40     10     34   1
    41     14     35   1
    42     15     36   1
    43     16     37   1
    44     17     38   1
    45     18     39   1
    46     19     40   1
    47     20     41   1
    48     21     42   1
    49     23     43   1
    50     24     44   1
    51     45     46   2
    52     46     47   1
    53     47     48   2
    54     48     49   1
    55     49     50   2
    56     50     45   1
    57     51     52   2
    58     51     53   1
    59     48     51   1
    60     47     54   1
    61     49     55   1
    62     50     56   1
    63     25     45   1
