# Produced with molli package
@<TRIPOS>MOLECULE
D_8_O
54 61 0 0 0
SMALL
USER_CHARGES

@<TRIPOS>ATOM
     1 C      -6.878447     3.643564     0.695869 C          1 UNL1 0.000
     2 C      -5.548659     3.965331     0.953034 C          1 UNL1 0.000
     3 C      -4.546170     3.003589     0.861308 C          1 UNL1 0.000
     4 C      -4.907220     1.668054     0.606497 C          1 UNL1 0.000
     5 C      -6.241731     1.265442     0.460106 C          1 UNL1 0.000
     6 C      -7.241387     2.303720     0.395809 C          1 UNL1 0.000
     7 N      -4.110511     0.563082     0.349884 N          1 UNL1 0.000
     8 C      -4.898883    -0.565532     0.185892 C          1 UNL1 0.000
     9 C      -4.528326    -1.898070    -0.070540 C          1 UNL1 0.000
    10 C      -5.512109    -2.882706    -0.078400 C          1 UNL1 0.000
    11 C      -6.829357    -2.584123     0.256253 C          1 UNL1 0.000
    12 C      -7.202018    -1.247086     0.557748 C          1 UNL1 0.000
    13 C      -6.228854    -0.189168     0.419712 C          1 UNL1 0.000
    14 C      -7.854493     4.653215     0.685275 C          1 UNL1 0.000
    15 C      -9.172098     4.372385     0.327952 C          1 UNL1 0.000
    16 C      -9.522927     3.083509    -0.051861 C          1 UNL1 0.000
    17 C      -8.566083     2.065824    -0.032898 C          1 UNL1 0.000
    18 C      -8.505885    -1.031413     1.057230 C          1 UNL1 0.000
    19 C      -9.438392    -2.068429     1.143929 C          1 UNL1 0.000
    20 C      -9.081605    -3.355705     0.764976 C          1 UNL1 0.000
    21 C      -7.780421    -3.614245     0.338396 C          1 UNL1 0.000
    22 C      -2.698334     0.575518     0.322244 C          1 UNL1 0.000
    23 C      -1.965156     0.986411     1.451433 C          1 UNL1 0.000
    24 C      -0.552231     0.988823     1.471022 C          1 UNL1 0.000
    25 C       0.257868     0.587168     0.378043 C          1 UNL1 0.000
    26 C      -0.445712     0.194974    -0.799654 C          1 UNL1 0.000
    27 C      -1.962413     0.188898    -0.828489 C          1 UNL1 0.000
    28 N       0.090082    -0.192188    -1.972193 N          1 UNL1 0.000
    29 S      -1.165441    -0.469744    -3.014723 S          1 UNL1 0.000
    30 N      -2.456538    -0.175192    -2.023858 N          1 UNL1 0.000
    31 H      -5.260638     4.994911     1.157555 H          1 UNL1 0.000
    32 H      -3.507258     3.303922     0.962855 H          1 UNL1 0.000
    33 H      -3.495211    -2.175064    -0.257477 H          1 UNL1 0.000
    34 H      -5.215638    -3.907675    -0.292662 H          1 UNL1 0.000
    35 H      -7.588564     5.679153     0.931603 H          1 UNL1 0.000
    36 H      -9.912794     5.167229     0.311702 H          1 UNL1 0.000
    37 H     -10.536100     2.868352    -0.380975 H          1 UNL1 0.000
    38 H      -8.856912     1.092100    -0.414583 H          1 UNL1 0.000
    39 H      -8.798509    -0.058289     1.437897 H          1 UNL1 0.000
    40 H     -10.437224    -1.868525     1.522750 H          1 UNL1 0.000
    41 H      -9.803272    -4.165200     0.832462 H          1 UNL1 0.000
    42 H      -7.506660    -4.637720     0.090436 H          1 UNL1 0.000
    43 H      -2.490474     1.283527     2.360470 H          1 UNL1 0.000
    44 H      -0.052748     1.309496     2.388575 H          1 UNL1 0.000
    45 C       1.715848     0.595188     0.437650 C          1 UNL1 0.000
    46 N       2.271356     1.756885     0.867025 N          1 UNL1 0.000
    47 C       3.620144     1.816187     0.931045 C          1 UNL1 0.000
    48 C       4.455243     0.756995     0.620863 C          1 UNL1 0.000
    49 C       3.874436    -0.436601     0.214350 C          1 UNL1 0.000
    50 C       2.487958    -0.520575     0.116665 C          1 UNL1 0.000
    51 H       4.025545     2.772734     1.248214 H          1 UNL1 0.000
    52 H       5.531888     0.859947     0.693809 H          1 UNL1 0.000
    53 H       4.492690    -1.295319    -0.030809 H          1 UNL1 0.000
    54 H       2.022350    -1.447675    -0.203058 H          1 UNL1 0.000
@<TRIPOS>BOND
     1      1      2   2
     2      2      3   1
     3      3      4   2
     4      4      5   1
     5      5      6   2
     6      6      1   1
     7      4      7   1
     8      7      8   1
     9      8      9   2
    10      9     10   1
    11     10     11   2
    12     11     12   1
    13     12     13   2
    14     13      8   1
    15     13      5   1
    16      1     14   1
    17     14     15   2
    18     15     16   1
    19     16     17   2
    20     17      6   1
    21     12     18   1
    22     18     19   2
    23     19     20   1
    24     20     21   2
    25     21     11   1
    26     22     23   2
    27     23     24   1
    28     24     25   2
    29     25     26   1
    30     26     27   1
    31     27     22   1
    32     26     28   2
    33     28     29   1
    34     29     30   1
    35     30     27   2
    36      7     22   1
    37      2     31   1
    38      3     32   1
    39      9     33   1
    40     10     34   1
    41     14     35   1
    42     15     36   1
    43     16     37   1
    44     17     38   1
    45     18     39   1
    46     19     40   1
    47     20     41   1
    48     21     42   1
    49     23     43   1
    50     24     44   1
    51     45     46   2
    52     46     47   1
    53     47     48   2
    54     48     49   1
    55     49     50   2
    56     50     45   1
    57     47     51   1
    58     48     52   1
    59     49     53   1
    60     50     54   1
    61     25     45   1
