# Produced with molli package
@<TRIPOS>MOLECULE
D_8_Q
53 60 0 0 0
SMALL
USER_CHARGES

@<TRIPOS>ATOM
     1 C      -6.863124     3.684628     0.708071 C          1 UNL1 0.000
     2 C      -5.527977     3.993679     0.952680 C          1 UNL1 0.000
     3 C      -4.540156     3.015434     0.891119 C          1 UNL1 0.000
     4 C      -4.923395     1.680734     0.670676 C          1 UNL1 0.000
     5 C      -6.262372     1.290848     0.526425 C          1 UNL1 0.000
     6 C      -7.247439     2.342700     0.439027 C          1 UNL1 0.000
     7 N      -4.141063     0.560710     0.455024 N          1 UNL1 0.000
     8 C      -4.936211    -0.562063     0.308161 C          1 UNL1 0.000
     9 C      -4.567432    -1.900194     0.081861 C          1 UNL1 0.000
    10 C      -5.558968    -2.875475     0.062755 C          1 UNL1 0.000
    11 C      -6.882768    -2.560423     0.352015 C          1 UNL1 0.000
    12 C      -7.252496    -1.216105     0.632327 C          1 UNL1 0.000
    13 C      -6.266276    -0.167776     0.507339 C          1 UNL1 0.000
    14 C      -7.824088     4.708154     0.682026 C          1 UNL1 0.000
    15 C      -9.149143     4.439972     0.344559 C          1 UNL1 0.000
    16 C      -9.521329     3.149247    -0.007136 C          1 UNL1 0.000
    17 C      -8.577928     2.119167     0.021185 C          1 UNL1 0.000
    18 C      -8.569170    -0.988533     1.089875 C          1 UNL1 0.000
    19 C      -9.516000    -2.014836     1.143485 C          1 UNL1 0.000
    20 C      -9.160024    -3.306774     0.779245 C          1 UNL1 0.000
    21 C      -7.846440    -3.579983     0.404806 C          1 UNL1 0.000
    22 C      -2.731900     0.555350     0.427963 C          1 UNL1 0.000
    23 C      -1.991462     0.857766     1.584952 C          1 UNL1 0.000
    24 C      -0.577842     0.822254     1.598612 C          1 UNL1 0.000
    25 C       0.219463     0.489917     0.471955 C          1 UNL1 0.000
    26 C      -0.497674     0.214236    -0.730166 C          1 UNL1 0.000
    27 C      -2.011127     0.245098    -0.753114 C          1 UNL1 0.000
    28 N       0.027708    -0.086018    -1.931709 N          1 UNL1 0.000
    29 S      -1.237313    -0.254940    -2.988102 S          1 UNL1 0.000
    30 N      -2.518723    -0.017789    -1.968550 N          1 UNL1 0.000
    31 H      -5.224778     5.024542     1.128190 H          1 UNL1 0.000
    32 H      -3.496036     3.298343     0.989995 H          1 UNL1 0.000
    33 H      -3.531605    -2.184232    -0.077993 H          1 UNL1 0.000
    34 H      -5.266323    -3.906341    -0.129634 H          1 UNL1 0.000
    35 H      -7.541088     5.735325     0.904283 H          1 UNL1 0.000
    36 H      -9.879010     5.244494     0.321223 H          1 UNL1 0.000
    37 H     -10.540779     2.942042    -0.321503 H          1 UNL1 0.000
    38 H      -8.885880     1.145177    -0.345240 H          1 UNL1 0.000
    39 H      -8.864174    -0.012852     1.462126 H          1 UNL1 0.000
    40 H     -10.526211    -1.803423     1.483570 H          1 UNL1 0.000
    41 H      -9.893195    -4.107618     0.818275 H          1 UNL1 0.000
    42 H      -7.574651    -4.607427     0.169404 H          1 UNL1 0.000
    43 H      -2.511883     1.095618     2.514071 H          1 UNL1 0.000
    44 H      -0.069879     1.052551     2.538614 H          1 UNL1 0.000
    45 C       1.676038     0.450699     0.515615 C          1 UNL1 0.000
    46 N       2.283898     1.531630     1.072734 N          1 UNL1 0.000
    47 C       3.637618     1.502771     1.096798 C          1 UNL1 0.000
    48 C       4.370093     0.428183     0.623306 C          1 UNL1 0.000
    49 N       3.784055    -0.668067     0.097903 N          1 UNL1 0.000
    50 C       2.428606    -0.626731     0.046689 C          1 UNL1 0.000
    51 H       4.123863     2.379653     1.508714 H          1 UNL1 0.000
    52 H       5.453506     0.420982     0.652975 H          1 UNL1 0.000
    53 H       1.959029    -1.507588    -0.379512 H          1 UNL1 0.000
@<TRIPOS>BOND
     1      1      2   2
     2      2      3   1
     3      3      4   2
     4      4      5   1
     5      5      6   2
     6      6      1   1
     7      4      7   1
     8      7      8   1
     9      8      9   2
    10      9     10   1
    11     10     11   2
    12     11     12   1
    13     12     13   2
    14     13      8   1
    15     13      5   1
    16      1     14   1
    17     14     15   2
    18     15     16   1
    19     16     17   2
    20     17      6   1
    21     12     18   1
    22     18     19   2
    23     19     20   1
    24     20     21   2
    25     21     11   1
    26     22     23   2
    27     23     24   1
    28     24     25   2
    29     25     26   1
    30     26     27   1
    31     27     22   1
    32     26     28   2
    33     28     29   1
    34     29     30   1
    35     30     27   2
    36      7     22   1
    37      2     31   1
    38      3     32   1
    39      9     33   1
    40     10     34   1
    41     14     35   1
    42     15     36   1
    43     16     37   1
    44     17     38   1
    45     18     39   1
    46     19     40   1
    47     20     41   1
    48     21     42   1
    49     23     43   1
    50     24     44   1
    51     45     46   2
    52     46     47   1
    53     47     48   2
    54     48     49   1
    55     49     50   2
    56     50     45   1
    57     47     51   1
    58     48     52   1
    59     50     53   1
    60     25     45   1
