# Produced with molli package
@<TRIPOS>MOLECULE
D_8_T
58 65 0 0 0
SMALL
USER_CHARGES

@<TRIPOS>ATOM
     1 C      -6.863413     3.626289     0.475183 C          1 UNL1 0.000
     2 C      -5.541544     3.970062     0.202727 C          1 UNL1 0.000
     3 C      -4.537263     3.007491     0.188557 C          1 UNL1 0.000
     4 C      -4.894992     1.660197     0.359633 C          1 UNL1 0.000
     5 C      -6.219991     1.237724     0.536638 C          1 UNL1 0.000
     6 C      -7.216532     2.269929     0.710928 C          1 UNL1 0.000
     7 N      -4.089985     0.541058     0.417547 N          1 UNL1 0.000
     8 C      -4.851058    -0.602455     0.550968 C          1 UNL1 0.000
     9 C      -4.437565    -1.938330     0.684056 C          1 UNL1 0.000
    10 C      -5.407622    -2.934469     0.730623 C          1 UNL1 0.000
    11 C      -6.756453    -2.633534     0.558857 C          1 UNL1 0.000
    12 C      -7.171352    -1.286759     0.371150 C          1 UNL1 0.000
    13 C      -6.198705    -0.223001     0.478850 C          1 UNL1 0.000
    14 C      -7.842600     4.630690     0.548531 C          1 UNL1 0.000
    15 C      -9.154945     4.327362     0.905416 C          1 UNL1 0.000
    16 C      -9.492359     3.022591     1.237358 C          1 UNL1 0.000
    17 C      -8.530099     2.011854     1.162029 C          1 UNL1 0.000
    18 C      -8.522423    -1.068992     0.021194 C          1 UNL1 0.000
    19 C      -9.452021    -2.112160    -0.006999 C          1 UNL1 0.000
    20 C      -9.046339    -3.410005     0.271237 C          1 UNL1 0.000
    21 C      -7.702692    -3.671349     0.531518 C          1 UNL1 0.000
    22 C      -2.685410     0.565000     0.381960 C          1 UNL1 0.000
    23 C      -1.944785     0.616432     1.575828 C          1 UNL1 0.000
    24 C      -0.531456     0.631763     1.573837 C          1 UNL1 0.000
    25 C       0.254045     0.595684     0.394061 C          1 UNL1 0.000
    26 C      -0.464164     0.544184    -0.840022 C          1 UNL1 0.000
    27 C      -1.978218     0.528659    -0.845285 C          1 UNL1 0.000
    28 N       0.054822     0.500418    -2.079891 N          1 UNL1 0.000
    29 S      -1.220355     0.441072    -3.136262 S          1 UNL1 0.000
    30 N      -2.498458     0.474812    -2.082107 N          1 UNL1 0.000
    31 H      -5.263479     5.010078     0.044278 H          1 UNL1 0.000
    32 H      -3.503787     3.302951     0.030737 H          1 UNL1 0.000
    33 H      -3.385406    -2.202363     0.742547 H          1 UNL1 0.000
    34 H      -5.083570    -3.967230     0.843919 H          1 UNL1 0.000
    35 H      -7.585754     5.666954     0.339410 H          1 UNL1 0.000
    36 H      -9.901291     5.115480     0.956358 H          1 UNL1 0.000
    37 H     -10.500978     2.787174     1.566887 H          1 UNL1 0.000
    38 H      -8.810214     1.023934     1.510996 H          1 UNL1 0.000
    39 H      -8.860697    -0.087368    -0.291935 H          1 UNL1 0.000
    40 H     -10.488232    -1.907648    -0.263294 H          1 UNL1 0.000
    41 H      -9.765470    -4.224300     0.249719 H          1 UNL1 0.000
    42 H      -7.395156    -4.702039     0.695494 H          1 UNL1 0.000
    43 H      -2.465677     0.648217     2.533655 H          1 UNL1 0.000
    44 H      -0.018154     0.674629     2.536860 H          1 UNL1 0.000
    45 C       1.712780     0.596350     0.422816 C          1 UNL1 0.000
    46 C       2.436322     1.786069     0.262464 C          1 UNL1 0.000
    47 C       3.834404     1.783320     0.292112 C          1 UNL1 0.000
    48 C       4.537423     0.590961     0.493023 C          1 UNL1 0.000
    49 C       3.821254    -0.601187     0.641897 C          1 UNL1 0.000
    50 C       2.423653    -0.596761     0.614073 C          1 UNL1 0.000
    51 C       6.037194     0.575761     0.479788 C          1 UNL1 0.000
    52 H       1.913786     2.726639     0.101409 H          1 UNL1 0.000
    53 H       4.369349     2.719820     0.151160 H          1 UNL1 0.000
    54 H       4.346753    -1.544262     0.774327 H          1 UNL1 0.000
    55 H       1.890922    -1.538495     0.727780 H          1 UNL1 0.000
    56 H       6.399963     0.323881    -0.521558 H          1 UNL1 0.000
    57 H       6.423341    -0.159319     1.193781 H          1 UNL1 0.000
    58 H       6.443868     1.551413     0.765782 H          1 UNL1 0.000
@<TRIPOS>BOND
     1      1      2   2
     2      2      3   1
     3      3      4   2
     4      4      5   1
     5      5      6   2
     6      6      1   1
     7      4      7   1
     8      7      8   1
     9      8      9   2
    10      9     10   1
    11     10     11   2
    12     11     12   1
    13     12     13   2
    14     13      8   1
    15     13      5   1
    16      1     14   1
    17     14     15   2
    18     15     16   1
    19     16     17   2
    20     17      6   1
    21     12     18   1
    22     18     19   2
    23     19     20   1
    24     20     21   2
    25     21     11   1
    26     22     23   2
    27     23     24   1
    28     24     25   2
    29     25     26   1
    30     26     27   1
    31     27     22   1
    32     26     28   2
    33     28     29   1
    34     29     30   1
    35     30     27   2
    36      7     22   1
    37      2     31   1
    38      3     32   1
    39      9     33   1
    40     10     34   1
    41     14     35   1
    42     15     36   1
    43     16     37   1
    44     17     38   1
    45     18     39   1
    46     19     40   1
    47     20     41   1
    48     21     42   1
    49     23     43   1
    50     24     44   1
    51     45     46   2
    52     46     47   1
    53     47     48   2
    54     48     49   1
    55     49     50   2
    56     50     45   1
    57     48     51   1
    58     46     52   1
    59     47     53   1
    60     49     54   1
    61     50     55   1
    62     51     56   1
    63     51     57   1
    64     51     58   1
    65     25     45   1
