# Produced with molli package
@<TRIPOS>MOLECULE
D_8_P
59 66 0 0 0
SMALL
USER_CHARGES

@<TRIPOS>ATOM
     1 C      -6.784092     3.638565     0.611067 C          1 UNL1 0.000
     2 C      -5.459725     3.956580     0.905772 C          1 UNL1 0.000
     3 C      -4.462379     2.985350     0.877036 C          1 UNL1 0.000
     4 C      -4.832090     1.650772     0.640610 C          1 UNL1 0.000
     5 C      -6.163365     1.250084     0.466838 C          1 UNL1 0.000
     6 C      -7.150320     2.293459     0.336313 C          1 UNL1 0.000
     7 N      -4.040896     0.533753     0.456971 N          1 UNL1 0.000
     8 C      -4.821050    -0.597177     0.314866 C          1 UNL1 0.000
     9 C      -4.436247    -1.931088     0.099649 C          1 UNL1 0.000
    10 C      -5.423015    -2.912673     0.071473 C          1 UNL1 0.000
    11 C      -6.755558    -2.603388     0.335645 C          1 UNL1 0.000
    12 C      -7.139448    -1.258968     0.590003 C          1 UNL1 0.000
    13 C      -6.157659    -0.207881     0.472685 C          1 UNL1 0.000
    14 C      -7.751332     4.654479     0.541058 C          1 UNL1 0.000
    15 C      -9.059422     4.373977     0.149265 C          1 UNL1 0.000
    16 C      -9.408883     3.078136    -0.207458 C          1 UNL1 0.000
    17 C      -8.461920     2.054256    -0.129874 C          1 UNL1 0.000
    18 C      -8.466428    -1.027978     1.015789 C          1 UNL1 0.000
    19 C      -9.407692    -2.058844     1.070911 C          1 UNL1 0.000
    20 C      -9.037402    -3.354472     0.735588 C          1 UNL1 0.000
    21 C      -7.715772    -3.627093     0.386692 C          1 UNL1 0.000
    22 C      -2.635468     0.543782     0.437513 C          1 UNL1 0.000
    23 C      -1.904072     0.585025     1.637916 C          1 UNL1 0.000
    24 C      -0.490043     0.581921     1.648962 C          1 UNL1 0.000
    25 C       0.304436     0.553389     0.475542 C          1 UNL1 0.000
    26 C      -0.404026     0.526648    -0.764991 C          1 UNL1 0.000
    27 C      -1.916904     0.515898    -0.783765 C          1 UNL1 0.000
    28 N       0.126399     0.508437    -2.000520 N          1 UNL1 0.000
    29 S      -1.138796     0.490914    -3.070041 S          1 UNL1 0.000
    30 N      -2.425739     0.490861    -2.026351 N          1 UNL1 0.000
    31 H      -5.171391     4.988998     1.095052 H          1 UNL1 0.000
    32 H      -3.423666     3.269406     1.018924 H          1 UNL1 0.000
    33 H      -3.394866    -2.203565    -0.045902 H          1 UNL1 0.000
    34 H      -5.122351    -3.943033    -0.109348 H          1 UNL1 0.000
    35 H      -7.485487     5.684793     0.768610 H          1 UNL1 0.000
    36 H      -9.792838     5.173409     0.088245 H          1 UNL1 0.000
    37 H     -10.412612     2.861927    -0.563768 H          1 UNL1 0.000
    38 H      -8.747901     1.073377    -0.496292 H          1 UNL1 0.000
    39 H      -8.773698    -0.046272     1.361180 H          1 UNL1 0.000
    40 H     -10.425041    -1.847322     1.389410 H          1 UNL1 0.000
    41 H      -9.766860    -4.158814     0.776084 H          1 UNL1 0.000
    42 H      -7.435541    -4.656236     0.171275 H          1 UNL1 0.000
    43 H      -2.433132     0.601735     2.591706 H          1 UNL1 0.000
    44 H       0.014614     0.599131     2.617153 H          1 UNL1 0.000
    45 C       1.763179     0.543782     0.509111 C          1 UNL1 0.000
    46 C       2.490658     1.744134     0.463563 C          1 UNL1 0.000
    47 C       3.887835     1.732431     0.470127 C          1 UNL1 0.000
    48 C       4.564964     0.518980     0.540368 C          1 UNL1 0.000
    49 C       3.865092    -0.683627     0.572673 C          1 UNL1 0.000
    50 C       2.468334    -0.669550     0.566312 C          1 UNL1 0.000
    51 O       5.931479     0.511085     0.486215 O          1 UNL1 0.000
    52 C       6.475136     0.447177     1.804094 C          1 UNL1 0.000
    53 H       1.970500     2.697438     0.398647 H          1 UNL1 0.000
    54 H       4.442376     2.663853     0.406295 H          1 UNL1 0.000
    55 H       4.401012    -1.627921     0.584859 H          1 UNL1 0.000
    56 H       1.930547    -1.615169     0.581238 H          1 UNL1 0.000
    57 H       7.564190     0.391250     1.714129 H          1 UNL1 0.000
    58 H       6.134143    -0.446868     2.337717 H          1 UNL1 0.000
    59 H       6.226792     1.349818     2.372962 H          1 UNL1 0.000
@<TRIPOS>BOND
     1      1      2   2
     2      2      3   1
     3      3      4   2
     4      4      5   1
     5      5      6   2
     6      6      1   1
     7      4      7   1
     8      7      8   1
     9      8      9   2
    10      9     10   1
    11     10     11   2
    12     11     12   1
    13     12     13   2
    14     13      8   1
    15     13      5   1
    16      1     14   1
    17     14     15   2
    18     15     16   1
    19     16     17   2
    20     17      6   1
    21     12     18   1
    22     18     19   2
    23     19     20   1
    24     20     21   2
    25     21     11   1
    26     22     23   2
    27     23     24   1
    28     24     25   2
    29     25     26   1
    30     26     27   1
    31     27     22   1
    32     26     28   2
    33     28     29   1
    34     29     30   1
    35     30     27   2
    36      7     22   1
    37      2     31   1
    38      3     32   1
    39      9     33   1
    40     10     34   1
    41     14     35   1
    42     15     36   1
    43     16     37   1
    44     17     38   1
    45     18     39   1
    46     19     40   1
    47     20     41   1
    48     21     42   1
    49     23     43   1
    50     24     44   1
    51     45     46   2
    52     46     47   1
    53     47     48   2
    54     48     49   1
    55     49     50   2
    56     50     45   1
    57     51     52   1
    58     48     51   1
    59     46     53   1
    60     47     54   1
    61     49     55   1
    62     50     56   1
    63     52     57   1
    64     52     58   1
    65     52     59   1
    66     25     45   1
