# Produced with molli package
@<TRIPOS>MOLECULE
D_8_L
59 67 0 0 0
SMALL
USER_CHARGES

@<TRIPOS>ATOM
     1 C      -6.789265     3.620868     0.603539 C          1 UNL1 0.000
     2 C      -5.458337     3.937278     0.868552 C          1 UNL1 0.000
     3 C      -4.467041     2.960172     0.838556 C          1 UNL1 0.000
     4 C      -4.846701     1.624036     0.628204 C          1 UNL1 0.000
     5 C      -6.182411     1.226905     0.481182 C          1 UNL1 0.000
     6 C      -7.167400     2.273747     0.357088 C          1 UNL1 0.000
     7 N      -4.062429     0.501622     0.445020 N          1 UNL1 0.000
     8 C      -4.849490    -0.626442     0.318672 C          1 UNL1 0.000
     9 C      -4.473393    -1.963131     0.106173 C          1 UNL1 0.000
    10 C      -5.463655    -2.941507     0.101681 C          1 UNL1 0.000
    11 C      -6.789904    -2.625382     0.388608 C          1 UNL1 0.000
    12 C      -7.164349    -1.278419     0.641890 C          1 UNL1 0.000
    13 C      -6.181654    -0.231010     0.498951 C          1 UNL1 0.000
    14 C      -7.751394     4.641950     0.535138 C          1 UNL1 0.000
    15 C      -9.068651     4.362770     0.174495 C          1 UNL1 0.000
    16 C      -9.432651     3.063325    -0.152338 C          1 UNL1 0.000
    17 C      -8.489955     2.034952    -0.077818 C          1 UNL1 0.000
    18 C      -8.481993    -1.040547     1.092535 C          1 UNL1 0.000
    19 C      -9.425085    -2.068376     1.172100 C          1 UNL1 0.000
    20 C      -9.065648    -3.366931     0.836890 C          1 UNL1 0.000
    21 C      -7.751923    -3.646056     0.463971 C          1 UNL1 0.000
    22 C      -2.656887     0.505318     0.416353 C          1 UNL1 0.000
    23 C      -1.919289     0.610446     1.609065 C          1 UNL1 0.000
    24 C      -0.505844     0.613504     1.612543 C          1 UNL1 0.000
    25 C       0.283168     0.529513     0.437905 C          1 UNL1 0.000
    26 C      -0.430882     0.437691    -0.796032 C          1 UNL1 0.000
    27 C      -1.944287     0.419512    -0.805962 C          1 UNL1 0.000
    28 N       0.092648     0.366340    -2.032659 N          1 UNL1 0.000
    29 S      -1.178104     0.295864    -3.093004 S          1 UNL1 0.000
    30 N      -2.459533     0.336415    -2.043486 N          1 UNL1 0.000
    31 H      -5.161171     4.970904     1.034939 H          1 UNL1 0.000
    32 H      -3.424593     3.241798     0.956481 H          1 UNL1 0.000
    33 H      -3.435559    -2.240786    -0.054658 H          1 UNL1 0.000
    34 H      -5.169545    -3.973843    -0.077438 H          1 UNL1 0.000
    35 H      -7.474901     5.674152     0.739271 H          1 UNL1 0.000
    36 H      -9.798340     5.165738     0.114428 H          1 UNL1 0.000
    37 H     -10.444922     2.847061    -0.483747 H          1 UNL1 0.000
    38 H      -8.789408     1.050516    -0.422431 H          1 UNL1 0.000
    39 H      -8.778980    -0.056063     1.438669 H          1 UNL1 0.000
    40 H     -10.435258    -1.851901     1.509680 H          1 UNL1 0.000
    41 H      -9.796528    -4.168869     0.896240 H          1 UNL1 0.000
    42 H      -7.478946    -4.677117     0.249349 H          1 UNL1 0.000
    43 H      -2.442793     0.671507     2.564107 H          1 UNL1 0.000
    44 H       0.004303     0.678732     2.575952 H          1 UNL1 0.000
    45 C       1.742481     0.541050     0.468334 C          1 UNL1 0.000
    46 C       2.442089     1.753328     0.549519 C          1 UNL1 0.000
    47 C       3.841401     1.798278     0.575029 C          1 UNL1 0.000
    48 C       4.527188     0.581232     0.520501 C          1 UNL1 0.000
    49 C       3.873426    -0.647590     0.445341 C          1 UNL1 0.000
    50 C       2.464558    -0.665995     0.419486 C          1 UNL1 0.000
    51 N       5.879252     0.321077     0.519518 N          1 UNL1 0.000
    52 C       6.101579    -1.028957     0.453440 C          1 UNL1 0.000
    53 C       4.876859    -1.654861     0.406315 C          1 UNL1 0.000
    54 H       1.892550     2.692882     0.580099 H          1 UNL1 0.000
    55 H       4.366228     2.746375     0.626720 H          1 UNL1 0.000
    56 H       1.943415    -1.617131     0.351842 H          1 UNL1 0.000
    57 H       6.598778     1.029523     0.557813 H          1 UNL1 0.000
    58 H       7.107695    -1.425752     0.441357 H          1 UNL1 0.000
    59 H       4.716230    -2.723140     0.345347 H          1 UNL1 0.000
@<TRIPOS>BOND
     1      1      2   2
     2      2      3   1
     3      3      4   2
     4      4      5   1
     5      5      6   2
     6      6      1   1
     7      4      7   1
     8      7      8   1
     9      8      9   2
    10      9     10   1
    11     10     11   2
    12     11     12   1
    13     12     13   2
    14     13      8   1
    15     13      5   1
    16      1     14   1
    17     14     15   2
    18     15     16   1
    19     16     17   2
    20     17      6   1
    21     12     18   1
    22     18     19   2
    23     19     20   1
    24     20     21   2
    25     21     11   1
    26     22     23   2
    27     23     24   1
    28     24     25   2
    29     25     26   1
    30     26     27   1
    31     27     22   1
    32     26     28   2
    33     28     29   1
    34     29     30   1
    35     30     27   2
    36      7     22   1
    37      2     31   1
    38      3     32   1
    39      9     33   1
    40     10     34   1
    41     14     35   1
    42     15     36   1
    43     16     37   1
    44     17     38   1
    45     18     39   1
    46     19     40   1
    47     20     41   1
    48     21     42   1
    49     23     43   1
    50     24     44   1
    51     45     46   2
    52     46     47   1
    53     47     48   2
    54     48     49   1
    55     49     50   2
    56     50     45   1
    57     48     51   1
    58     51     52   1
    59     52     53   2
    60     53     49   1
    61     46     54   1
    62     47     55   1
    63     50     56   1
    64     51     57   1
    65     52     58   1
    66     53     59   1
    67     25     45   1
