# Produced with molli package
@<TRIPOS>MOLECULE
D_8_N
52 59 0 0 0
SMALL
USER_CHARGES

@<TRIPOS>ATOM
     1 C      -6.930252     3.638504     0.449297 C          1 UNL1 0.000
     2 C      -5.605279     3.959945     0.162227 C          1 UNL1 0.000
     3 C      -4.610926     2.985589     0.166171 C          1 UNL1 0.000
     4 C      -4.980803     1.647672     0.382046 C          1 UNL1 0.000
     5 C      -6.311164     1.246927     0.564791 C          1 UNL1 0.000
     6 C      -7.299154     2.290163     0.703054 C          1 UNL1 0.000
     7 N      -4.188688     0.523474     0.512249 N          1 UNL1 0.000
     8 C      -4.967441    -0.599918     0.712365 C          1 UNL1 0.000
     9 C      -4.582364    -1.931362     0.941787 C          1 UNL1 0.000
    10 C      -5.569882    -2.911773     0.987028 C          1 UNL1 0.000
    11 C      -6.901650    -2.604832     0.714937 C          1 UNL1 0.000
    12 C      -7.284467    -1.263496     0.446487 C          1 UNL1 0.000
    13 C      -6.304736    -0.210851     0.559170 C          1 UNL1 0.000
    14 C      -7.896251     4.655526     0.524908 C          1 UNL1 0.000
    15 C      -9.209251     4.371126     0.896445 C          1 UNL1 0.000
    16 C      -9.564133     3.070934     1.229742 C          1 UNL1 0.000
    17 C      -8.616701     2.047005     1.151376 C          1 UNL1 0.000
    18 C      -8.606237    -1.036263     0.003228 C          1 UNL1 0.000
    19 C      -9.544749    -2.069294    -0.057554 C          1 UNL1 0.000
    20 C      -9.177236    -3.361660     0.292742 C          1 UNL1 0.000
    21 C      -7.860019    -3.630296     0.661670 C          1 UNL1 0.000
    22 C      -2.782862     0.525318     0.481109 C          1 UNL1 0.000
    23 C      -2.043734     0.414995     1.674872 C          1 UNL1 0.000
    24 C      -0.630920     0.411801     1.680524 C          1 UNL1 0.000
    25 C       0.141335     0.506775     0.501866 C          1 UNL1 0.000
    26 C      -0.559449     0.600812    -0.736260 C          1 UNL1 0.000
    27 C      -2.073184     0.615648    -0.744230 C          1 UNL1 0.000
    28 N      -0.035680     0.674919    -1.972712 N          1 UNL1 0.000
    29 S      -1.308681     0.738376    -3.032370 S          1 UNL1 0.000
    30 N      -2.589219     0.698501    -1.981118 N          1 UNL1 0.000
    31 H      -5.315669     4.993585    -0.016837 H          1 UNL1 0.000
    32 H      -3.574559     3.268151     0.004891 H          1 UNL1 0.000
    33 H      -3.539083    -2.207580     1.064467 H          1 UNL1 0.000
    34 H      -5.269102    -3.941422     1.170528 H          1 UNL1 0.000
    35 H      -7.627151     5.687903     0.311790 H          1 UNL1 0.000
    36 H      -9.943266     5.170209     0.956051 H          1 UNL1 0.000
    37 H     -10.574021     2.850100     1.565446 H          1 UNL1 0.000
    38 H      -8.910875     1.061600     1.496918 H          1 UNL1 0.000
    39 H      -8.907774    -0.058293    -0.357937 H          1 UNL1 0.000
    40 H     -10.556690    -1.862442    -0.395982 H          1 UNL1 0.000
    41 H      -9.904076    -4.168051     0.244634 H          1 UNL1 0.000
    42 H      -7.580698    -4.657826     0.884437 H          1 UNL1 0.000
    43 H      -2.568604     0.349424     2.629142 H          1 UNL1 0.000
    44 H      -0.118763     0.341786     2.641594 H          1 UNL1 0.000
    45 C       1.587499     0.487366     0.536321 C          1 UNL1 0.000
    46 C       2.328180     1.633437     0.326660 C          1 UNL1 0.000
    47 S       4.012871     1.345362     0.431049 S          1 UNL1 0.000
    48 C       3.764178    -0.315793     0.753645 C          1 UNL1 0.000
    49 C       2.425862    -0.641292     0.791915 C          1 UNL1 0.000
    50 H       1.970074     2.631556     0.112237 H          1 UNL1 0.000
    51 H       4.610595    -0.973124     0.897643 H          1 UNL1 0.000
    52 H       2.067707    -1.646566     0.977943 H          1 UNL1 0.000
@<TRIPOS>BOND
     1      1      2   2
     2      2      3   1
     3      3      4   2
     4      4      5   1
     5      5      6   2
     6      6      1   1
     7      4      7   1
     8      7      8   1
     9      8      9   2
    10      9     10   1
    11     10     11   2
    12     11     12   1
    13     12     13   2
    14     13      8   1
    15     13      5   1
    16      1     14   1
    17     14     15   2
    18     15     16   1
    19     16     17   2
    20     17      6   1
    21     12     18   1
    22     18     19   2
    23     19     20   1
    24     20     21   2
    25     21     11   1
    26     22     23   2
    27     23     24   1
    28     24     25   2
    29     25     26   1
    30     26     27   1
    31     27     22   1
    32     26     28   2
    33     28     29   1
    34     29     30   1
    35     30     27   2
    36      7     22   1
    37      2     31   1
    38      3     32   1
    39      9     33   1
    40     10     34   1
    41     14     35   1
    42     15     36   1
    43     16     37   1
    44     17     38   1
    45     18     39   1
    46     19     40   1
    47     20     41   1
    48     21     42   1
    49     23     43   1
    50     24     44   1
    51     45     46   2
    52     46     47   1
    53     47     48   1
    54     48     49   2
    55     49     45   1
    56     46     50   1
    57     48     51   1
    58     49     52   1
    59     25     45   1
