# Produced with molli package
@<TRIPOS>MOLECULE
D_8_K
57 64 0 0 0
SMALL
USER_CHARGES

@<TRIPOS>ATOM
     1 C      -6.800460     3.676660     0.596017 C          1 UNL1 0.000
     2 C      -5.462008     3.980676     0.834877 C          1 UNL1 0.000
     3 C      -4.481901     2.993417     0.791902 C          1 UNL1 0.000
     4 C      -4.880396     1.659902     0.601895 C          1 UNL1 0.000
     5 C      -6.222241     1.274964     0.481294 C          1 UNL1 0.000
     6 C      -7.196355     2.332818     0.357099 C          1 UNL1 0.000
     7 N      -4.110675     0.523555     0.457534 N          1 UNL1 0.000
     8 C      -4.907943    -0.599750     0.375658 C          1 UNL1 0.000
     9 C      -4.542417    -1.943952     0.195785 C          1 UNL1 0.000
    10 C      -5.543223    -2.910861     0.192507 C          1 UNL1 0.000
    11 C      -6.870153    -2.574724     0.450963 C          1 UNL1 0.000
    12 C      -7.233420    -1.219545     0.678390 C          1 UNL1 0.000
    13 C      -6.237969    -0.184545     0.526613 C          1 UNL1 0.000
    14 C      -7.754275     4.706649     0.551408 C          1 UNL1 0.000
    15 C      -9.081079     4.441028     0.217437 C          1 UNL1 0.000
    16 C      -9.462163     3.146936    -0.111054 C          1 UNL1 0.000
    17 C      -8.527550     2.109749    -0.058648 C          1 UNL1 0.000
    18 C      -8.555099    -0.963115     1.105716 C          1 UNL1 0.000
    19 C      -9.511754    -1.978795     1.179594 C          1 UNL1 0.000
    20 C      -9.162185    -3.284912     0.864537 C          1 UNL1 0.000
    21 C      -7.845046    -3.583338     0.520697 C          1 UNL1 0.000
    22 C      -2.706085     0.508834     0.441385 C          1 UNL1 0.000
    23 C      -1.982040     0.352258     1.636564 C          1 UNL1 0.000
    24 C      -0.568525     0.346369     1.655100 C          1 UNL1 0.000
    25 C       0.231620     0.493756     0.494713 C          1 UNL1 0.000
    26 C      -0.469823     0.649013    -0.740442 C          1 UNL1 0.000
    27 C      -1.982301     0.657104    -0.767415 C          1 UNL1 0.000
    28 N       0.069986     0.798548    -1.963048 N          1 UNL1 0.000
    29 S      -1.190184     0.930384    -3.032684 S          1 UNL1 0.000
    30 N      -2.483402     0.809603    -2.003587 N          1 UNL1 0.000
    31 H      -5.152017     5.011428     0.996074 H          1 UNL1 0.000
    32 H      -3.435120     3.262051     0.900791 H          1 UNL1 0.000
    33 H      -3.505991    -2.233978     0.048515 H          1 UNL1 0.000
    34 H      -5.259112    -3.949301     0.032964 H          1 UNL1 0.000
    35 H      -7.464809     5.735173     0.756748 H          1 UNL1 0.000
    36 H      -9.805243     5.250272     0.178776 H          1 UNL1 0.000
    37 H     -10.482415     2.941618    -0.424385 H          1 UNL1 0.000
    38 H      -8.841514     1.130182    -0.404043 H          1 UNL1 0.000
    39 H      -8.846611     0.027426     1.438234 H          1 UNL1 0.000
    40 H     -10.525262    -1.746617     1.496107 H          1 UNL1 0.000
    41 H      -9.903941    -4.077214     0.917749 H          1 UNL1 0.000
    42 H      -7.580673    -4.620004     0.322437 H          1 UNL1 0.000
    43 H      -2.517487     0.236880     2.580067 H          1 UNL1 0.000
    44 H      -0.070837     0.226391     2.619646 H          1 UNL1 0.000
    45 C       1.690174     0.494596     0.535705 C          1 UNL1 0.000
    46 C       2.408047    -0.712864     0.499035 C          1 UNL1 0.000
    47 C       3.805755    -0.715825     0.517972 C          1 UNL1 0.000
    48 C       4.491674     0.501375     0.583630 C          1 UNL1 0.000
    49 C       3.798468     1.715257     0.631558 C          1 UNL1 0.000
    50 C       2.401229     1.705029     0.604418 C          1 UNL1 0.000
    51 N       5.954248     0.506397     0.600288 N          1 UNL1 0.000
    52 O       6.536325    -0.462291     0.090356 O          1 UNL1 0.000
    53 O       6.517612     1.475489     1.126737 O          1 UNL1 0.000
    54 H       1.877560    -1.662056     0.439357 H          1 UNL1 0.000
    55 H       4.339790    -1.662952     0.478502 H          1 UNL1 0.000
    56 H       4.326078     2.665581     0.676711 H          1 UNL1 0.000
    57 H       1.864809     2.652663     0.625034 H          1 UNL1 0.000
@<TRIPOS>BOND
     1      1      2   2
     2      2      3   1
     3      3      4   2
     4      4      5   1
     5      5      6   2
     6      6      1   1
     7      4      7   1
     8      7      8   1
     9      8      9   2
    10      9     10   1
    11     10     11   2
    12     11     12   1
    13     12     13   2
    14     13      8   1
    15     13      5   1
    16      1     14   1
    17     14     15   2
    18     15     16   1
    19     16     17   2
    20     17      6   1
    21     12     18   1
    22     18     19   2
    23     19     20   1
    24     20     21   2
    25     21     11   1
    26     22     23   2
    27     23     24   1
    28     24     25   2
    29     25     26   1
    30     26     27   1
    31     27     22   1
    32     26     28   2
    33     28     29   1
    34     29     30   1
    35     30     27   2
    36      7     22   1
    37      2     31   1
    38      3     32   1
    39      9     33   1
    40     10     34   1
    41     14     35   1
    42     15     36   1
    43     16     37   1
    44     17     38   1
    45     18     39   1
    46     19     40   1
    47     20     41   1
    48     21     42   1
    49     23     43   1
    50     24     44   1
    51     45     46   2
    52     46     47   1
    53     47     48   2
    54     48     49   1
    55     49     50   2
    56     50     45   1
    57     51     52   2
    58     51     53   1
    59     48     51   1
    60     46     54   1
    61     47     55   1
    62     49     56   1
    63     50     57   1
    64     25     45   1
