# Produced with molli package
@<TRIPOS>MOLECULE
D_9_K
56 62 0 0 0
SMALL
USER_CHARGES

@<TRIPOS>ATOM
     1 C      -6.140703     3.663124     1.610388 C          1 UNL1 0.000
     2 C      -4.817640     3.986052     1.316580 C          1 UNL1 0.000
     3 C      -3.821053     3.014607     1.326447 C          1 UNL1 0.000
     4 C      -4.188703     1.677306     1.548144 C          1 UNL1 0.000
     5 C      -5.517719     1.272043     1.732962 C          1 UNL1 0.000
     6 C      -6.506111     2.315040     1.874228 C          1 UNL1 0.000
     7 N      -3.391642     0.559645     1.696145 N          1 UNL1 0.000
     8 C      -4.165863    -0.571252     1.865668 C          1 UNL1 0.000
     9 C      -3.768945    -1.901576     2.079916 C          1 UNL1 0.000
    10 C      -4.749410    -2.886881     2.144466 C          1 UNL1 0.000
    11 C      -6.089195    -2.585182     1.910937 C          1 UNL1 0.000
    12 C      -6.485379    -1.245819     1.646775 C          1 UNL1 0.000
    13 C      -5.506949    -0.187568     1.733253 C          1 UNL1 0.000
    14 C      -7.106912     4.679621     1.688165 C          1 UNL1 0.000
    15 C      -8.416104     4.396856     2.073505 C          1 UNL1 0.000
    16 C      -8.766359     3.098666     2.419106 C          1 UNL1 0.000
    17 C      -7.818763     2.075048     2.337867 C          1 UNL1 0.000
    18 C      -7.822137    -1.029444     1.244788 C          1 UNL1 0.000
    19 C      -8.759276    -2.065799     1.228706 C          1 UNL1 0.000
    20 C      -8.375497    -3.353581     1.578167 C          1 UNL1 0.000
    21 C      -7.044662    -3.614438     1.899112 C          1 UNL1 0.000
    22 C      -1.980623     0.576879     1.724868 C          1 UNL1 0.000
    23 C      -1.329754     0.553264     2.959970 C          1 UNL1 0.000
    24 C       0.061503     0.561306     2.988504 C          1 UNL1 0.000
    25 C       0.785291     0.573158     1.791954 C          1 UNL1 0.000
    26 C       0.131493     0.584805     0.546958 C          1 UNL1 0.000
    27 C      -1.269817     0.599026     0.520686 C          1 UNL1 0.000
    28 H      -4.530035     5.020209     1.136682 H          1 UNL1 0.000
    29 H      -2.782602     3.297125     1.176482 H          1 UNL1 0.000
    30 H      -2.720990    -2.167194     2.190135 H          1 UNL1 0.000
    31 H      -4.438984    -3.914430     2.324133 H          1 UNL1 0.000
    32 H      -6.840168     5.711437     1.468826 H          1 UNL1 0.000
    33 H      -9.149722     5.195994     2.136924 H          1 UNL1 0.000
    34 H      -9.771948     2.879741     2.768692 H          1 UNL1 0.000
    35 H      -8.107559     1.093415     2.698218 H          1 UNL1 0.000
    36 H      -8.140955    -0.056481     0.885645 H          1 UNL1 0.000
    37 H      -9.784380    -1.865024     0.928424 H          1 UNL1 0.000
    38 H      -9.101548    -4.162031     1.568144 H          1 UNL1 0.000
    39 H      -6.754023    -4.638768     2.123168 H          1 UNL1 0.000
    40 H      -1.893132     0.541172     3.890183 H          1 UNL1 0.000
    41 H       0.586622     0.555040     3.940459 H          1 UNL1 0.000
    42 H       1.873364     0.569930     1.833624 H          1 UNL1 0.000
    43 H      -1.799194     0.601633    -0.430307 H          1 UNL1 0.000
    44 C       0.906875     0.561251    -0.695318 C          1 UNL1 0.000
    45 C       1.227811     1.753587    -1.363922 C          1 UNL1 0.000
    46 C       1.986854     1.733518    -2.537929 C          1 UNL1 0.000
    47 C       2.424619     0.507458    -3.051984 C          1 UNL1 0.000
    48 C       2.110081    -0.692868    -2.405493 C          1 UNL1 0.000
    49 C       1.355140    -0.658872    -1.229772 C          1 UNL1 0.000
    50 N       3.225998     0.480145    -4.278063 N          1 UNL1 0.000
    51 O       3.790119     1.530085    -4.618577 O          1 UNL1 0.000
    52 O       3.292844    -0.590780    -4.897344 O          1 UNL1 0.000
    53 H       0.890327     2.708710    -0.964180 H          1 UNL1 0.000
    54 H       2.225284     2.671838    -3.034439 H          1 UNL1 0.000
    55 H       2.446424    -1.651187    -2.795714 H          1 UNL1 0.000
    56 H       1.115652    -1.593813    -0.724622 H          1 UNL1 0.000
@<TRIPOS>BOND
     1      1      2   2
     2      2      3   1
     3      3      4   2
     4      4      5   1
     5      5      6   2
     6      6      1   1
     7      4      7   1
     8      7      8   1
     9      8      9   2
    10      9     10   1
    11     10     11   2
    12     11     12   1
    13     12     13   2
    14     13      8   1
    15     13      5   1
    16      1     14   1
    17     14     15   2
    18     15     16   1
    19     16     17   2
    20     17      6   1
    21     12     18   1
    22     18     19   2
    23     19     20   1
    24     20     21   2
    25     21     11   1
    26     22     23   2
    27     23     24   1
    28     24     25   2
    29     25     26   1
    30     26     27   2
    31     27     22   1
    32      7     22   1
    33      2     28   1
    34      3     29   1
    35      9     30   1
    36     10     31   1
    37     14     32   1
    38     15     33   1
    39     16     34   1
    40     17     35   1
    41     18     36   1
    42     19     37   1
    43     20     38   1
    44     21     39   1
    45     23     40   1
    46     24     41   1
    47     25     42   1
    48     27     43   1
    49     44     45   2
    50     45     46   1
    51     46     47   2
    52     47     48   1
    53     48     49   2
    54     49     44   1
    55     50     51   2
    56     50     52   1
    57     47     50   1
    58     45     53   1
    59     46     54   1
    60     48     55   1
    61     49     56   1
    62     26     44   1
