# Produced with molli package
@<TRIPOS>MOLECULE
D_9_Q
52 58 0 0 0
SMALL
USER_CHARGES

@<TRIPOS>ATOM
     1 C      -6.204607     3.656586     1.719725 C          1 UNL1 0.000
     2 C      -4.878637     3.979306     1.436118 C          1 UNL1 0.000
     3 C      -3.884188     3.004553     1.435111 C          1 UNL1 0.000
     4 C      -4.256210     1.665548     1.637527 C          1 UNL1 0.000
     5 C      -5.587759     1.263723     1.812750 C          1 UNL1 0.000
     6 C      -6.574127     2.306708     1.962646 C          1 UNL1 0.000
     7 N      -3.464249     0.542988     1.780798 N          1 UNL1 0.000
     8 C      -4.246732    -0.585353     1.942026 C          1 UNL1 0.000
     9 C      -3.861741    -1.920514     2.149917 C          1 UNL1 0.000
    10 C      -4.849267    -2.900732     2.192190 C          1 UNL1 0.000
    11 C      -6.183703    -2.588973     1.940291 C          1 UNL1 0.000
    12 C      -6.566805    -1.245216     1.683735 C          1 UNL1 0.000
    13 C      -5.583844    -0.194182     1.795537 C          1 UNL1 0.000
    14 C      -7.170344     4.673239     1.807378 C          1 UNL1 0.000
    15 C      -8.482363     4.386486     2.181537 C          1 UNL1 0.000
    16 C      -8.836426     3.084206     2.506784 C          1 UNL1 0.000
    17 C      -7.889527     2.061040     2.416257 C          1 UNL1 0.000
    18 C      -7.894823    -1.014388     1.260939 C          1 UNL1 0.000
    19 C      -8.838206    -2.044010     1.216201 C          1 UNL1 0.000
    20 C      -8.469151    -3.337957     1.558376 C          1 UNL1 0.000
    21 C      -7.145936    -3.611617     1.900807 C          1 UNL1 0.000
    22 C      -2.052210     0.548443     1.814207 C          1 UNL1 0.000
    23 C      -1.405569     0.418106     3.045190 C          1 UNL1 0.000
    24 C      -0.015019     0.392493     3.077959 C          1 UNL1 0.000
    25 C       0.712871     0.459951     1.885923 C          1 UNL1 0.000
    26 C       0.066152     0.570749     0.639896 C          1 UNL1 0.000
    27 C      -1.335106     0.642219     0.616429 C          1 UNL1 0.000
    28 H      -4.586670     5.014780     1.272145 H          1 UNL1 0.000
    29 H      -2.844108     3.286568     1.292473 H          1 UNL1 0.000
    30 H      -2.817207    -2.195264     2.268756 H          1 UNL1 0.000
    31 H      -4.547673    -3.931774     2.365862 H          1 UNL1 0.000
    32 H      -6.900935     5.707443     1.603989 H          1 UNL1 0.000
    33 H      -9.215502     5.185483     2.251763 H          1 UNL1 0.000
    34 H      -9.844228     2.861115     2.847256 H          1 UNL1 0.000
    35 H      -8.181157     1.074248     2.759899 H          1 UNL1 0.000
    36 H      -8.200105    -0.034762     0.907892 H          1 UNL1 0.000
    37 H      -9.856134    -1.832690     0.899156 H          1 UNL1 0.000
    38 H      -9.200212    -4.141303     1.525853 H          1 UNL1 0.000
    39 H      -6.866153    -4.640130     2.118522 H          1 UNL1 0.000
    40 H      -1.972254     0.357438     3.971540 H          1 UNL1 0.000
    41 H       0.506176     0.318149     4.029182 H          1 UNL1 0.000
    42 H       1.800760     0.435688     1.933653 H          1 UNL1 0.000
    43 H      -1.857577     0.732669    -0.334702 H          1 UNL1 0.000
    44 C       0.841241     0.581236    -0.600889 C          1 UNL1 0.000
    45 N       0.833213     1.733737    -1.316622 N          1 UNL1 0.000
    46 C       1.585940     1.731106    -2.442430 C          1 UNL1 0.000
    47 C       2.310849     0.625241    -2.855051 C          1 UNL1 0.000
    48 N       2.318471    -0.533617    -2.161494 N          1 UNL1 0.000
    49 C       1.570340    -0.527842    -1.030360 C          1 UNL1 0.000
    50 H       1.594758     2.655178    -3.009115 H          1 UNL1 0.000
    51 H       2.908827     0.642970    -3.759077 H          1 UNL1 0.000
    52 H       1.568452    -1.457405    -0.470365 H          1 UNL1 0.000
@<TRIPOS>BOND
     1      1      2   2
     2      2      3   1
     3      3      4   2
     4      4      5   1
     5      5      6   2
     6      6      1   1
     7      4      7   1
     8      7      8   1
     9      8      9   2
    10      9     10   1
    11     10     11   2
    12     11     12   1
    13     12     13   2
    14     13      8   1
    15     13      5   1
    16      1     14   1
    17     14     15   2
    18     15     16   1
    19     16     17   2
    20     17      6   1
    21     12     18   1
    22     18     19   2
    23     19     20   1
    24     20     21   2
    25     21     11   1
    26     22     23   2
    27     23     24   1
    28     24     25   2
    29     25     26   1
    30     26     27   2
    31     27     22   1
    32      7     22   1
    33      2     28   1
    34      3     29   1
    35      9     30   1
    36     10     31   1
    37     14     32   1
    38     15     33   1
    39     16     34   1
    40     17     35   1
    41     18     36   1
    42     19     37   1
    43     20     38   1
    44     21     39   1
    45     23     40   1
    46     24     41   1
    47     25     42   1
    48     27     43   1
    49     44     45   2
    50     45     46   1
    51     46     47   2
    52     47     48   1
    53     48     49   2
    54     49     44   1
    55     46     50   1
    56     47     51   1
    57     49     52   1
    58     26     44   1
