# Produced with molli package
@<TRIPOS>MOLECULE
D_9_O
53 59 0 0 0
SMALL
USER_CHARGES

@<TRIPOS>ATOM
     1 C      -6.023815     3.642194     1.939022 C          1 UNL1 0.000
     2 C      -4.691975     3.946675     2.210669 C          1 UNL1 0.000
     3 C      -3.703015     2.969632     2.145202 C          1 UNL1 0.000
     4 C      -4.085494     1.640869     1.895632 C          1 UNL1 0.000
     5 C      -5.421291     1.252917     1.729734 C          1 UNL1 0.000
     6 C      -6.404217     2.305412     1.641083 C          1 UNL1 0.000
     7 N      -3.300754     0.521393     1.694173 N          1 UNL1 0.000
     8 C      -4.091530    -0.598959     1.519659 C          1 UNL1 0.000
     9 C      -3.717167    -1.932465     1.283368 C          1 UNL1 0.000
    10 C      -4.709095    -2.909001     1.257101 C          1 UNL1 0.000
    11 C      -6.036156    -2.596644     1.544241 C          1 UNL1 0.000
    12 C      -6.409590    -1.253203     1.819677 C          1 UNL1 0.000
    13 C      -5.424004    -0.204982     1.703434 C          1 UNL1 0.000
    14 C      -6.985762     4.664886     1.916962 C          1 UNL1 0.000
    15 C      -8.304667     4.401561     1.551424 C          1 UNL1 0.000
    16 C      -8.670124     3.117073     1.170221 C          1 UNL1 0.000
    17 C      -7.727516     2.086412     1.198552 C          1 UNL1 0.000
    18 C      -7.727935    -1.022557     2.271934 C          1 UNL1 0.000
    19 C      -8.672349    -2.050185     2.334023 C          1 UNL1 0.000
    20 C      -8.313127    -3.343893     1.980240 C          1 UNL1 0.000
    21 C      -6.999177    -3.617472     1.604151 C          1 UNL1 0.000
    22 C      -1.888270     0.516328     1.705537 C          1 UNL1 0.000
    23 C      -1.217277     0.641705     2.923843 C          1 UNL1 0.000
    24 C       0.174681     0.639569     2.931185 C          1 UNL1 0.000
    25 C       0.880441     0.535207     1.727920 C          1 UNL1 0.000
    26 C       0.208869     0.429315     0.495818 C          1 UNL1 0.000
    27 C      -1.193624     0.408619     0.496097 C          1 UNL1 0.000
    28 H      -4.391203     4.972869     2.413929 H          1 UNL1 0.000
    29 H      -2.658539     3.242327     2.271323 H          1 UNL1 0.000
    30 H      -2.676481    -2.209197     1.138979 H          1 UNL1 0.000
    31 H      -4.414687    -3.939858     1.068803 H          1 UNL1 0.000
    32 H      -6.707637     5.687406     2.164728 H          1 UNL1 0.000
    33 H      -9.034656     5.206065     1.530589 H          1 UNL1 0.000
    34 H      -9.683851     2.915408     0.834543 H          1 UNL1 0.000
    35 H      -8.028428     1.116589     0.815182 H          1 UNL1 0.000
    36 H      -8.024434    -0.044681     2.636857 H          1 UNL1 0.000
    37 H      -9.682246    -1.838079     2.675056 H          1 UNL1 0.000
    38 H      -9.044098    -4.146338     2.029451 H          1 UNL1 0.000
    39 H      -6.726066    -4.646155     1.377499 H          1 UNL1 0.000
    40 H      -1.765357     0.727372     3.859109 H          1 UNL1 0.000
    41 H       0.714553     0.731723     3.870168 H          1 UNL1 0.000
    42 H       1.968540     0.565818     1.749370 H          1 UNL1 0.000
    43 H      -1.732479     0.347183    -0.447949 H          1 UNL1 0.000
    44 C       0.959150     0.381522    -0.760646 C          1 UNL1 0.000
    45 N       0.916887     1.511914    -1.507638 N          1 UNL1 0.000
    46 C       1.626513     1.524130    -2.656753 C          1 UNL1 0.000
    47 C       2.375035     0.452086    -3.111272 C          1 UNL1 0.000
    48 C       2.398642    -0.704503    -2.341387 C          1 UNL1 0.000
    49 C       1.684792    -0.742935    -1.145977 C          1 UNL1 0.000
    50 H       1.577419     2.452116    -3.219369 H          1 UNL1 0.000
    51 H       2.925751     0.517822    -4.042842 H          1 UNL1 0.000
    52 H       2.970134    -1.568930    -2.666751 H          1 UNL1 0.000
    53 H       1.692626    -1.635621    -0.529378 H          1 UNL1 0.000
@<TRIPOS>BOND
     1      1      2   2
     2      2      3   1
     3      3      4   2
     4      4      5   1
     5      5      6   2
     6      6      1   1
     7      4      7   1
     8      7      8   1
     9      8      9   2
    10      9     10   1
    11     10     11   2
    12     11     12   1
    13     12     13   2
    14     13      8   1
    15     13      5   1
    16      1     14   1
    17     14     15   2
    18     15     16   1
    19     16     17   2
    20     17      6   1
    21     12     18   1
    22     18     19   2
    23     19     20   1
    24     20     21   2
    25     21     11   1
    26     22     23   2
    27     23     24   1
    28     24     25   2
    29     25     26   1
    30     26     27   2
    31     27     22   1
    32      7     22   1
    33      2     28   1
    34      3     29   1
    35      9     30   1
    36     10     31   1
    37     14     32   1
    38     15     33   1
    39     16     34   1
    40     17     35   1
    41     18     36   1
    42     19     37   1
    43     20     38   1
    44     21     39   1
    45     23     40   1
    46     24     41   1
    47     25     42   1
    48     27     43   1
    49     44     45   2
    50     45     46   1
    51     46     47   2
    52     47     48   1
    53     48     49   2
    54     49     44   1
    55     46     50   1
    56     47     51   1
    57     48     52   1
    58     49     53   1
    59     26     44   1
