# Produced with molli package
@<TRIPOS>MOLECULE
D_9_R
55 61 0 0 0
SMALL
USER_CHARGES

@<TRIPOS>ATOM
     1 C      -6.069960     3.698445     1.824665 C          1 UNL1 0.000
     2 C      -4.730156     3.992057     2.069250 C          1 UNL1 0.000
     3 C      -3.757918     2.997046     2.031812 C          1 UNL1 0.000
     4 C      -4.166162     1.666451     1.844021 C          1 UNL1 0.000
     5 C      -5.509933     1.292691     1.709152 C          1 UNL1 0.000
     6 C      -6.474960     2.358286     1.580275 C          1 UNL1 0.000
     7 N      -3.402745     0.524682     1.706824 N          1 UNL1 0.000
     8 C      -4.210402    -0.592301     1.615810 C          1 UNL1 0.000
     9 C      -3.852592    -1.942722     1.468805 C          1 UNL1 0.000
    10 C      -4.857936    -2.904706     1.488916 C          1 UNL1 0.000
    11 C      -6.184048    -2.555393     1.733549 C          1 UNL1 0.000
    12 C      -6.541346    -1.192755     1.924876 C          1 UNL1 0.000
    13 C      -5.537949    -0.166199     1.760110 C          1 UNL1 0.000
    14 C      -7.016412     4.735134     1.781260 C          1 UNL1 0.000
    15 C      -8.344199     4.480023     1.442946 C          1 UNL1 0.000
    16 C      -8.733138     3.190167     1.106849 C          1 UNL1 0.000
    17 C      -7.805860     2.146307     1.157519 C          1 UNL1 0.000
    18 C      -7.863896    -0.921049     2.340920 C          1 UNL1 0.000
    19 C      -8.825097    -1.930584     2.439640 C          1 UNL1 0.000
    20 C      -8.479297    -3.246416     2.164423 C          1 UNL1 0.000
    21 C      -7.162465    -3.558577     1.832017 C          1 UNL1 0.000
    22 C      -1.991800     0.491963     1.731044 C          1 UNL1 0.000
    23 C      -1.337684     0.498966     2.964314 C          1 UNL1 0.000
    24 C       0.052196     0.446340     2.989122 C          1 UNL1 0.000
    25 C       0.771161     0.390392     1.790486 C          1 UNL1 0.000
    26 C       0.116843     0.390615     0.543132 C          1 UNL1 0.000
    27 C      -1.284852     0.443763     0.524383 C          1 UNL1 0.000
    28 H      -4.411703     5.019821     2.232716 H          1 UNL1 0.000
    29 H      -2.708085     3.254733     2.144713 H          1 UNL1 0.000
    30 H      -2.814590    -2.241469     1.351133 H          1 UNL1 0.000
    31 H      -4.576920    -3.949110     1.367537 H          1 UNL1 0.000
    32 H      -6.720210     5.760419     1.993176 H          1 UNL1 0.000
    33 H      -9.062859     5.294293     1.407729 H          1 UNL1 0.000
    34 H      -9.754153     2.993384     0.790617 H          1 UNL1 0.000
    35 H      -8.125378     1.169852     0.808192 H          1 UNL1 0.000
    36 H      -8.153045     0.077754     2.649142 H          1 UNL1 0.000
    37 H      -9.838295    -1.685756     2.747616 H          1 UNL1 0.000
    38 H      -9.223289    -4.034637     2.241642 H          1 UNL1 0.000
    39 H      -6.900514    -4.601887     1.668383 H          1 UNL1 0.000
    40 H      -1.897898     0.538228     3.895582 H          1 UNL1 0.000
    41 H       0.580472     0.454121     3.939282 H          1 UNL1 0.000
    42 H       1.858978     0.368663     1.833115 H          1 UNL1 0.000
    43 H      -1.814814     0.458935    -0.426551 H          1 UNL1 0.000
    44 C       0.889394     0.350125    -0.701775 C          1 UNL1 0.000
    45 N       0.810262     1.457451    -1.483522 N          1 UNL1 0.000
    46 C       1.562867     1.488788    -2.612808 C          1 UNL1 0.000
    47 C       2.387022     0.444892    -3.000031 C          1 UNL1 0.000
    48 C       2.446862    -0.700922    -2.206977 C          1 UNL1 0.000
    49 C       1.686692    -0.745379    -1.038074 C          1 UNL1 0.000
    50 N       3.184250     0.561298    -4.210639 N          1 UNL1 0.000
    51 O       2.925891     1.491461    -4.984776 O          1 UNL1 0.000
    52 O       4.077907    -0.279354    -4.389906 O          1 UNL1 0.000
    53 H       1.475693     2.408542    -3.186187 H          1 UNL1 0.000
    54 H       3.072442    -1.548561    -2.476360 H          1 UNL1 0.000
    55 H       1.717812    -1.622763    -0.398238 H          1 UNL1 0.000
@<TRIPOS>BOND
     1      1      2   2
     2      2      3   1
     3      3      4   2
     4      4      5   1
     5      5      6   2
     6      6      1   1
     7      4      7   1
     8      7      8   1
     9      8      9   2
    10      9     10   1
    11     10     11   2
    12     11     12   1
    13     12     13   2
    14     13      8   1
    15     13      5   1
    16      1     14   1
    17     14     15   2
    18     15     16   1
    19     16     17   2
    20     17      6   1
    21     12     18   1
    22     18     19   2
    23     19     20   1
    24     20     21   2
    25     21     11   1
    26     22     23   2
    27     23     24   1
    28     24     25   2
    29     25     26   1
    30     26     27   2
    31     27     22   1
    32      7     22   1
    33      2     28   1
    34      3     29   1
    35      9     30   1
    36     10     31   1
    37     14     32   1
    38     15     33   1
    39     16     34   1
    40     17     35   1
    41     18     36   1
    42     19     37   1
    43     20     38   1
    44     21     39   1
    45     23     40   1
    46     24     41   1
    47     25     42   1
    48     27     43   1
    49     44     45   2
    50     45     46   1
    51     46     47   2
    52     47     48   1
    53     48     49   2
    54     49     44   1
    55     50     51   2
    56     50     52   1
    57     47     50   1
    58     46     53   1
    59     48     54   1
    60     49     55   1
    61     26     44   1
