# Produced with molli package
@<TRIPOS>MOLECULE
D_9_S
59 65 0 0 0
SMALL
USER_CHARGES

@<TRIPOS>ATOM
     1 C      -6.063586     3.525176     1.954355 C          1 UNL1 0.000
     2 C      -4.729856     3.844599     2.198957 C          1 UNL1 0.000
     3 C      -3.735773     2.872120     2.143329 C          1 UNL1 0.000
     4 C      -4.112771     1.535760     1.929004 C          1 UNL1 0.000
     5 C      -5.447790     1.135709     1.785670 C          1 UNL1 0.000
     6 C      -6.439071     2.180579     1.688772 C          1 UNL1 0.000
     7 N      -3.322683     0.415241     1.756084 N          1 UNL1 0.000
     8 C      -4.106663    -0.712528     1.606098 C          1 UNL1 0.000
     9 C      -3.724401    -2.047379     1.393156 C          1 UNL1 0.000
    10 C      -4.710536    -3.030124     1.386582 C          1 UNL1 0.000
    11 C      -6.038484    -2.720572     1.673593 C          1 UNL1 0.000
    12 C      -6.418664    -1.375582     1.929672 C          1 UNL1 0.000
    13 C      -5.440871    -0.322883     1.788160 C          1 UNL1 0.000
    14 C      -7.033082     4.541121     1.931031 C          1 UNL1 0.000
    15 C      -8.356919     4.261443     1.596677 C          1 UNL1 0.000
    16 C      -8.719418     2.968078     1.245126 C          1 UNL1 0.000
    17 C      -7.768343     1.944965     1.272875 C          1 UNL1 0.000
    18 C      -7.735528    -1.146347     2.387164 C          1 UNL1 0.000
    19 C      -8.673805    -2.178320     2.468268 C          1 UNL1 0.000
    20 C      -8.309251    -3.474442     2.130050 C          1 UNL1 0.000
    21 C      -6.995294    -3.746175     1.752375 C          1 UNL1 0.000
    22 C      -1.910422     0.418321     1.777658 C          1 UNL1 0.000
    23 C      -1.252507     0.548026     3.002711 C          1 UNL1 0.000
    24 C       0.138875     0.563013     3.022961 C          1 UNL1 0.000
    25 C       0.856325     0.476811     1.825762 C          1 UNL1 0.000
    26 C       0.196661     0.369183     0.588317 C          1 UNL1 0.000
    27 C      -1.204445     0.321959     0.573582 C          1 UNL1 0.000
    28 H      -4.434139     4.876643     2.377677 H          1 UNL1 0.000
    29 H      -2.692232     3.153452     2.256526 H          1 UNL1 0.000
    30 H      -2.682406    -2.320273     1.250189 H          1 UNL1 0.000
    31 H      -4.410848    -4.062207     1.214768 H          1 UNL1 0.000
    32 H      -6.758649     5.569734     2.155777 H          1 UNL1 0.000
    33 H      -9.093806     5.059829     1.577454 H          1 UNL1 0.000
    34 H      -9.738262     2.752675     0.933959 H          1 UNL1 0.000
    35 H      -8.069524     0.966976     0.911862 H          1 UNL1 0.000
    36 H      -8.035346    -0.165834     2.741700 H          1 UNL1 0.000
    37 H      -9.683163    -1.967158     2.811719 H          1 UNL1 0.000
    38 H      -9.035646    -4.280153     2.193195 H          1 UNL1 0.000
    39 H      -6.717514    -4.776316     1.539173 H          1 UNL1 0.000
    40 H      -1.810331     0.621901     3.933390 H          1 UNL1 0.000
    41 H       0.669019     0.652017     3.967887 H          1 UNL1 0.000
    42 H       1.944105     0.513656     1.858687 H          1 UNL1 0.000
    43 H      -1.737666     0.244879    -0.372203 H          1 UNL1 0.000
    44 C       0.965903     0.354792    -0.658357 C          1 UNL1 0.000
    45 C       1.116463     1.526067    -1.411451 C          1 UNL1 0.000
    46 C       1.884060     1.530607    -2.580281 C          1 UNL1 0.000
    47 C       2.515042     0.361673    -3.029880 C          1 UNL1 0.000
    48 C       2.357372    -0.813789    -2.287988 C          1 UNL1 0.000
    49 C       1.592502    -0.813200    -1.111988 C          1 UNL1 0.000
    50 C       3.333201     0.453673    -4.280179 C          1 UNL1 0.000
    51 C       3.940252    -0.774367    -4.908928 C          1 UNL1 0.000
    52 O       3.489870     1.552639    -4.815316 O          1 UNL1 0.000
    53 H       0.646640     2.451887    -1.083563 H          1 UNL1 0.000
    54 H       1.989578     2.461244    -3.136430 H          1 UNL1 0.000
    55 H       2.819439    -1.749901    -2.579993 H          1 UNL1 0.000
    56 H       1.491746    -1.736761    -0.543999 H          1 UNL1 0.000
    57 H       3.388423    -1.012661    -5.822345 H          1 UNL1 0.000
    58 H       3.946059    -1.649528    -4.263094 H          1 UNL1 0.000
    59 H       4.982899    -0.555593    -5.160357 H          1 UNL1 0.000
@<TRIPOS>BOND
     1      1      2   2
     2      2      3   1
     3      3      4   2
     4      4      5   1
     5      5      6   2
     6      6      1   1
     7      4      7   1
     8      7      8   1
     9      8      9   2
    10      9     10   1
    11     10     11   2
    12     11     12   1
    13     12     13   2
    14     13      8   1
    15     13      5   1
    16      1     14   1
    17     14     15   2
    18     15     16   1
    19     16     17   2
    20     17      6   1
    21     12     18   1
    22     18     19   2
    23     19     20   1
    24     20     21   2
    25     21     11   1
    26     22     23   2
    27     23     24   1
    28     24     25   2
    29     25     26   1
    30     26     27   2
    31     27     22   1
    32      7     22   1
    33      2     28   1
    34      3     29   1
    35      9     30   1
    36     10     31   1
    37     14     32   1
    38     15     33   1
    39     16     34   1
    40     17     35   1
    41     18     36   1
    42     19     37   1
    43     20     38   1
    44     21     39   1
    45     23     40   1
    46     24     41   1
    47     25     42   1
    48     27     43   1
    49     44     45   2
    50     45     46   1
    51     46     47   2
    52     47     48   1
    53     48     49   2
    54     49     44   1
    55     47     50   1
    56     50     51   1
    57     50     52   2
    58     45     53   1
    59     46     54   1
    60     48     55   1
    61     49     56   1
    62     51     57   1
    63     51     58   1
    64     51     59   1
    65     26     44   1
