# Produced with molli package
@<TRIPOS>MOLECULE
D_9_P
58 64 0 0 0
SMALL
USER_CHARGES

@<TRIPOS>ATOM
     1 C      -6.074681     3.670663     1.926144 C          1 UNL1 0.000
     2 C      -4.740181     3.987921     2.166499 C          1 UNL1 0.000
     3 C      -3.744569     3.019528     2.084269 C          1 UNL1 0.000
     4 C      -4.119575     1.687303     1.840969 C          1 UNL1 0.000
     5 C      -5.454329     1.286463     1.697997 C          1 UNL1 0.000
     6 C      -6.450191     2.329756     1.637683 C          1 UNL1 0.000
     7 N      -3.326575     0.575189     1.631560 N          1 UNL1 0.000
     8 C      -4.108164    -0.548460     1.442233 C          1 UNL1 0.000
     9 C      -3.723914    -1.872822     1.173014 C          1 UNL1 0.000
    10 C      -4.706460    -2.858296     1.140377 C          1 UNL1 0.000
    11 C      -6.030807    -2.566262     1.458836 C          1 UNL1 0.000
    12 C      -6.412683    -1.233090     1.771310 C          1 UNL1 0.000
    13 C      -5.441474    -0.171701     1.654556 C          1 UNL1 0.000
    14 C      -7.045280     4.685248     1.928214 C          1 UNL1 0.000
    15 C      -8.371518     4.410287     1.600850 C          1 UNL1 0.000
    16 C      -8.736318     3.121962     1.232463 C          1 UNL1 0.000
    17 C      -7.783720     2.099905     1.233033 C          1 UNL1 0.000
    18 C      -7.722957    -1.027433     2.257421 C          1 UNL1 0.000
    19 C      -8.654909    -2.066640     2.315894 C          1 UNL1 0.000
    20 C      -8.290303    -3.347664     1.923075 C          1 UNL1 0.000
    21 C      -6.981886    -3.598224     1.513564 C          1 UNL1 0.000
    22 C      -1.914237     0.581497     1.650992 C          1 UNL1 0.000
    23 C      -1.254118     0.699337     2.876294 C          1 UNL1 0.000
    24 C       0.137530     0.702110     2.895741 C          1 UNL1 0.000
    25 C       0.853426     0.614477     1.697724 C          1 UNL1 0.000
    26 C       0.191597     0.516707     0.460981 C          1 UNL1 0.000
    27 C      -1.209674     0.484318     0.446670 C          1 UNL1 0.000
    28 H      -4.444948     5.017168     2.362841 H          1 UNL1 0.000
    29 H      -2.700780     3.301045     2.194062 H          1 UNL1 0.000
    30 H      -2.682976    -2.136025     1.005980 H          1 UNL1 0.000
    31 H      -4.405055    -3.881549     0.923226 H          1 UNL1 0.000
    32 H      -6.769505     5.710674     2.166916 H          1 UNL1 0.000
    33 H      -9.109017     5.208191     1.600360 H          1 UNL1 0.000
    34 H      -9.757954     2.910597     0.928107 H          1 UNL1 0.000
    35 H      -8.088206     1.127995     0.858374 H          1 UNL1 0.000
    36 H      -8.020978    -0.061518     2.652142 H          1 UNL1 0.000
    37 H      -9.659184    -1.874123     2.684013 H          1 UNL1 0.000
    38 H      -9.011811    -4.158883     1.967932 H          1 UNL1 0.000
    39 H      -6.703017    -4.618292     1.256497 H          1 UNL1 0.000
    40 H      -1.810453     0.765871     3.808385 H          1 UNL1 0.000
    41 H       0.669071     0.774656     3.841202 H          1 UNL1 0.000
    42 H       1.941636     0.631129     1.729294 H          1 UNL1 0.000
    43 H      -1.742646     0.410004    -0.499558 H          1 UNL1 0.000
    44 C       0.957785     0.464977    -0.786358 C          1 UNL1 0.000
    45 C       1.155224     1.624882    -1.554689 C          1 UNL1 0.000
    46 C       1.903527     1.582143    -2.734325 C          1 UNL1 0.000
    47 C       2.464916     0.376682    -3.146126 C          1 UNL1 0.000
    48 C       2.255645    -0.789614    -2.416173 C          1 UNL1 0.000
    49 C       1.514141    -0.742770    -1.234118 C          1 UNL1 0.000
    50 O       3.178726     0.293851    -4.309661 O          1 UNL1 0.000
    51 C       4.491787     0.823264    -4.125393 C          1 UNL1 0.000
    52 H       0.723636     2.570910    -1.233347 H          1 UNL1 0.000
    53 H       2.036349     2.482247    -3.326909 H          1 UNL1 0.000
    54 H       2.673107    -1.730168    -2.762836 H          1 UNL1 0.000
    55 H       1.366027    -1.656643    -0.663092 H          1 UNL1 0.000
    56 H       5.105831     0.494494    -4.969331 H          1 UNL1 0.000
    57 H       4.957793     0.450132    -3.205680 H          1 UNL1 0.000
    58 H       4.470110     1.917826    -4.125047 H          1 UNL1 0.000
@<TRIPOS>BOND
     1      1      2   2
     2      2      3   1
     3      3      4   2
     4      4      5   1
     5      5      6   2
     6      6      1   1
     7      4      7   1
     8      7      8   1
     9      8      9   2
    10      9     10   1
    11     10     11   2
    12     11     12   1
    13     12     13   2
    14     13      8   1
    15     13      5   1
    16      1     14   1
    17     14     15   2
    18     15     16   1
    19     16     17   2
    20     17      6   1
    21     12     18   1
    22     18     19   2
    23     19     20   1
    24     20     21   2
    25     21     11   1
    26     22     23   2
    27     23     24   1
    28     24     25   2
    29     25     26   1
    30     26     27   2
    31     27     22   1
    32      7     22   1
    33      2     28   1
    34      3     29   1
    35      9     30   1
    36     10     31   1
    37     14     32   1
    38     15     33   1
    39     16     34   1
    40     17     35   1
    41     18     36   1
    42     19     37   1
    43     20     38   1
    44     21     39   1
    45     23     40   1
    46     24     41   1
    47     25     42   1
    48     27     43   1
    49     44     45   2
    50     45     46   1
    51     46     47   2
    52     47     48   1
    53     48     49   2
    54     49     44   1
    55     50     51   1
    56     47     50   1
    57     45     52   1
    58     46     53   1
    59     48     54   1
    60     49     55   1
    61     51     56   1
    62     51     57   1
    63     51     58   1
    64     26     44   1
