# Produced with molli package
@<TRIPOS>MOLECULE
D_9_T
57 63 0 0 0
SMALL
USER_CHARGES

@<TRIPOS>ATOM
     1 C      -6.108335     3.677125     1.914201 C          1 UNL1 0.000
     2 C      -4.775522     3.985613     2.176348 C          1 UNL1 0.000
     3 C      -3.785572     3.009659     2.112438 C          1 UNL1 0.000
     4 C      -4.167946     1.678728     1.875048 C          1 UNL1 0.000
     5 C      -5.504027     1.286772     1.719776 C          1 UNL1 0.000
     6 C      -6.488519     2.337882     1.626253 C          1 UNL1 0.000
     7 N      -3.382704     0.557547     1.688576 N          1 UNL1 0.000
     8 C      -4.170895    -0.567163     1.539492 C          1 UNL1 0.000
     9 C      -3.791298    -1.903146     1.328662 C          1 UNL1 0.000
    10 C      -4.779879    -2.882796     1.316831 C          1 UNL1 0.000
    11 C      -6.109083    -2.568877     1.591349 C          1 UNL1 0.000
    12 C      -6.488270    -1.221853     1.842128 C          1 UNL1 0.000
    13 C      -5.504690    -0.172421     1.712562 C          1 UNL1 0.000
    14 C      -7.072215     4.698111     1.895021 C          1 UNL1 0.000
    15 C      -8.393447     4.430759     1.541332 C          1 UNL1 0.000
    16 C      -8.759035     3.144164     1.167626 C          1 UNL1 0.000
    17 C      -7.814242     2.115260     1.193051 C          1 UNL1 0.000
    18 C      -7.810328    -0.989575     2.282780 C          1 UNL1 0.000
    19 C      -8.751894    -2.019442     2.354460 C          1 UNL1 0.000
    20 C      -8.386026    -3.317374     2.024251 C          1 UNL1 0.000
    21 C      -7.068583    -3.592223     1.662241 C          1 UNL1 0.000
    22 C      -1.970737     0.554671     1.702027 C          1 UNL1 0.000
    23 C      -1.305570     0.633372     2.927361 C          1 UNL1 0.000
    24 C       0.085840     0.629042     2.940090 C          1 UNL1 0.000
    25 C       0.795497     0.568964     1.736645 C          1 UNL1 0.000
    26 C       0.129056     0.509238     0.499302 C          1 UNL1 0.000
    27 C      -1.272624     0.488109     0.491092 C          1 UNL1 0.000
    28 H      -4.476276     5.013209     2.374660 H          1 UNL1 0.000
    29 H      -2.741395     3.282893     2.238530 H          1 UNL1 0.000
    30 H      -2.749057    -2.178522     1.191112 H          1 UNL1 0.000
    31 H      -4.481299    -3.915905     1.148355 H          1 UNL1 0.000
    32 H      -6.794706     5.722025     2.137669 H          1 UNL1 0.000
    33 H      -9.125580     5.233468     1.524366 H          1 UNL1 0.000
    34 H      -9.775160     2.939159     0.841188 H          1 UNL1 0.000
    35 H      -8.116199     1.143398     0.815769 H          1 UNL1 0.000
    36 H      -8.112962    -0.008010     2.631708 H          1 UNL1 0.000
    37 H      -9.764973    -1.805540     2.684807 H          1 UNL1 0.000
    38 H      -9.114464    -4.121620     2.081180 H          1 UNL1 0.000
    39 H      -6.790134    -4.623526     1.454647 H          1 UNL1 0.000
    40 H      -1.857699     0.681093     3.862928 H          1 UNL1 0.000
    41 H       0.622851     0.677884     3.883885 H          1 UNL1 0.000
    42 H       1.884024     0.584086     1.763428 H          1 UNL1 0.000
    43 H      -1.810893     0.442500    -0.453842 H          1 UNL1 0.000
    44 C       0.895588     0.500127    -0.750164 C          1 UNL1 0.000
    45 C       1.003795     1.661108    -1.529660 C          1 UNL1 0.000
    46 C       1.774128     1.673322    -2.696545 C          1 UNL1 0.000
    47 C       2.445917     0.519952    -3.113005 C          1 UNL1 0.000
    48 C       2.334425    -0.644604    -2.345056 C          1 UNL1 0.000
    49 C       1.567666    -0.653521    -1.175739 C          1 UNL1 0.000
    50 C       3.299097     0.526366    -4.346707 C          1 UNL1 0.000
    51 H       0.499459     2.574151    -1.219275 H          1 UNL1 0.000
    52 H       1.849643     2.593788    -3.270995 H          1 UNL1 0.000
    53 H       2.850545    -1.552479    -2.649237 H          1 UNL1 0.000
    54 H       1.500906    -1.569189    -0.592112 H          1 UNL1 0.000
    55 H       2.992663    -0.276557    -5.024767 H          1 UNL1 0.000
    56 H       4.350742     0.387368    -4.075901 H          1 UNL1 0.000
    57 H       3.211910     1.472763    -4.890580 H          1 UNL1 0.000
@<TRIPOS>BOND
     1      1      2   2
     2      2      3   1
     3      3      4   2
     4      4      5   1
     5      5      6   2
     6      6      1   1
     7      4      7   1
     8      7      8   1
     9      8      9   2
    10      9     10   1
    11     10     11   2
    12     11     12   1
    13     12     13   2
    14     13      8   1
    15     13      5   1
    16      1     14   1
    17     14     15   2
    18     15     16   1
    19     16     17   2
    20     17      6   1
    21     12     18   1
    22     18     19   2
    23     19     20   1
    24     20     21   2
    25     21     11   1
    26     22     23   2
    27     23     24   1
    28     24     25   2
    29     25     26   1
    30     26     27   2
    31     27     22   1
    32      7     22   1
    33      2     28   1
    34      3     29   1
    35      9     30   1
    36     10     31   1
    37     14     32   1
    38     15     33   1
    39     16     34   1
    40     17     35   1
    41     18     36   1
    42     19     37   1
    43     20     38   1
    44     21     39   1
    45     23     40   1
    46     24     41   1
    47     25     42   1
    48     27     43   1
    49     44     45   2
    50     45     46   1
    51     46     47   2
    52     47     48   1
    53     48     49   2
    54     49     44   1
    55     47     50   1
    56     45     51   1
    57     46     52   1
    58     48     53   1
    59     49     54   1
    60     50     55   1
    61     50     56   1
    62     50     57   1
    63     26     44   1
