# Produced with molli package
@<TRIPOS>MOLECULE
D_9_M
55 61 0 0 0
SMALL
USER_CHARGES

@<TRIPOS>ATOM
     1 C      -6.018054     3.618620     1.659538 C          1 UNL1 0.000
     2 C      -4.680989     3.940416     1.443894 C          1 UNL1 0.000
     3 C      -3.695705     2.959299     1.451665 C          1 UNL1 0.000
     4 C      -4.083616     1.616134     1.587278 C          1 UNL1 0.000
     5 C      -5.419744     1.215728     1.737890 C          1 UNL1 0.000
     6 C      -6.402688     2.268546     1.886014 C          1 UNL1 0.000
     7 N      -3.296352     0.484280     1.647961 N          1 UNL1 0.000
     8 C      -4.077669    -0.647615     1.762556 C          1 UNL1 0.000
     9 C      -3.680641    -1.989269     1.887194 C          1 UNL1 0.000
    10 C      -4.662203    -2.970706     1.966708 C          1 UNL1 0.000
    11 C      -6.010436    -2.651275     1.833758 C          1 UNL1 0.000
    12 C      -6.410665    -1.302796     1.624152 C          1 UNL1 0.000
    13 C      -5.420810    -0.248811     1.698089 C          1 UNL1 0.000
    14 C      -6.981767     4.640534     1.685959 C          1 UNL1 0.000
    15 C      -8.314106     4.362906     1.982646 C          1 UNL1 0.000
    16 C      -8.685289     3.068623     2.316828 C          1 UNL1 0.000
    17 C      -7.735327     2.043419     2.296947 C          1 UNL1 0.000
    18 C      -7.768587    -1.080260     1.305189 C          1 UNL1 0.000
    19 C      -8.716288    -2.106626     1.353933 C          1 UNL1 0.000
    20 C      -8.321591    -3.399448     1.666462 C          1 UNL1 0.000
    21 C      -6.972267    -3.674281     1.875992 C          1 UNL1 0.000
    22 C      -1.883875     0.487962     1.656080 C          1 UNL1 0.000
    23 C      -1.218006     0.479373     2.883343 C          1 UNL1 0.000
    24 C       0.173445     0.478737     2.894893 C          1 UNL1 0.000
    25 C       0.882800     0.479481     1.689717 C          1 UNL1 0.000
    26 C       0.215627     0.488628     0.451328 C          1 UNL1 0.000
    27 C      -1.186906     0.496600     0.442518 C          1 UNL1 0.000
    28 H      -4.377317     4.977483     1.314520 H          1 UNL1 0.000
    29 H      -2.650201     3.236185     1.345358 H          1 UNL1 0.000
    30 H      -2.630208    -2.264523     1.932465 H          1 UNL1 0.000
    31 H      -4.349681    -4.006106     2.087985 H          1 UNL1 0.000
    32 H      -6.698085     5.671018     1.482042 H          1 UNL1 0.000
    33 H      -9.049740     5.162533     1.989014 H          1 UNL1 0.000
    34 H      -9.710530     2.852457     2.605756 H          1 UNL1 0.000
    35 H      -8.044086     1.069981     2.660150 H          1 UNL1 0.000
    36 H      -8.102727    -0.108122     0.961407 H          1 UNL1 0.000
    37 H      -9.759073    -1.892700     1.134547 H          1 UNL1 0.000
    38 H      -9.054667    -4.200207     1.711063 H          1 UNL1 0.000
    39 H      -6.674261    -4.703498     2.065448 H          1 UNL1 0.000
    40 H      -1.769904     0.481416     3.820406 H          1 UNL1 0.000
    41 H       0.710481     0.480719     3.840151 H          1 UNL1 0.000
    42 H       1.971408     0.481821     1.718894 H          1 UNL1 0.000
    43 H      -1.727695     0.496977    -0.501993 H          1 UNL1 0.000
    44 C       0.983316     0.500238    -0.797509 C          1 UNL1 0.000
    45 C       1.153725     1.690779    -1.520035 C          1 UNL1 0.000
    46 C       1.918363     1.715079    -2.691018 C          1 UNL1 0.000
    47 C       2.521080     0.544291    -3.159599 C          1 UNL1 0.000
    48 C       2.352283    -0.650039    -2.453321 C          1 UNL1 0.000
    49 C       1.589935    -0.669778    -1.280272 C          1 UNL1 0.000
    50 C       3.313237     0.570535    -4.354109 C          1 UNL1 0.000
    51 N       3.957616     0.593670    -5.319631 N          1 UNL1 0.000
    52 H       0.700114     2.613634    -1.162294 H          1 UNL1 0.000
    53 H       2.043131     2.654142    -3.227089 H          1 UNL1 0.000
    54 H       2.814356    -1.570631    -2.805474 H          1 UNL1 0.000
    55 H       1.472212    -1.607376    -0.739192 H          1 UNL1 0.000
@<TRIPOS>BOND
     1      1      2   2
     2      2      3   1
     3      3      4   2
     4      4      5   1
     5      5      6   2
     6      6      1   1
     7      4      7   1
     8      7      8   1
     9      8      9   2
    10      9     10   1
    11     10     11   2
    12     11     12   1
    13     12     13   2
    14     13      8   1
    15     13      5   1
    16      1     14   1
    17     14     15   2
    18     15     16   1
    19     16     17   2
    20     17      6   1
    21     12     18   1
    22     18     19   2
    23     19     20   1
    24     20     21   2
    25     21     11   1
    26     22     23   2
    27     23     24   1
    28     24     25   2
    29     25     26   1
    30     26     27   2
    31     27     22   1
    32      7     22   1
    33      2     28   1
    34      3     29   1
    35      9     30   1
    36     10     31   1
    37     14     32   1
    38     15     33   1
    39     16     34   1
    40     17     35   1
    41     18     36   1
    42     19     37   1
    43     20     38   1
    44     21     39   1
    45     23     40   1
    46     24     41   1
    47     25     42   1
    48     27     43   1
    49     44     45   2
    50     45     46   1
    51     46     47   2
    52     47     48   1
    53     48     49   2
    54     49     44   1
    55     50     51   3
    56     47     50   1
    57     45     52   1
    58     46     53   1
    59     48     54   1
    60     49     55   1
    61     26     44   1
