# Produced with molli package
@<TRIPOS>MOLECULE
D_9_L
58 65 0 0 0
SMALL
USER_CHARGES

@<TRIPOS>ATOM
     1 C      -6.030011     3.698646     1.717297 C          1 UNL1 0.000
     2 C      -4.680202     4.006333     1.855807 C          1 UNL1 0.000
     3 C      -3.714192     3.009152     1.825168 C          1 UNL1 0.000
     4 C      -4.128799     1.670801     1.735763 C          1 UNL1 0.000
     5 C      -5.475425     1.281907     1.672758 C          1 UNL1 0.000
     6 C      -6.451059     2.347904     1.560984 C          1 UNL1 0.000
     7 N      -3.357302     0.530558     1.661229 N          1 UNL1 0.000
     8 C      -4.151038    -0.595101     1.609779 C          1 UNL1 0.000
     9 C      -3.766045    -1.940587     1.490635 C          1 UNL1 0.000
    10 C      -4.750812    -2.919703     1.510683 C          1 UNL1 0.000
    11 C      -6.083637    -2.590961     1.733547 C          1 UNL1 0.000
    12 C      -6.470579    -1.232600     1.919708 C          1 UNL1 0.000
    13 C      -5.485279    -0.183966     1.748280 C          1 UNL1 0.000
    14 C      -6.969294     4.742519     1.698935 C          1 UNL1 0.000
    15 C      -8.320498     4.484785     1.483757 C          1 UNL1 0.000
    16 C      -8.738217     3.185521     1.234930 C          1 UNL1 0.000
    17 C      -7.812468     2.136625     1.247487 C          1 UNL1 0.000
    18 C      -7.803961    -0.999400     2.322861 C          1 UNL1 0.000
    19 C      -8.745463    -2.031386     2.395356 C          1 UNL1 0.000
    20 C      -8.368024    -3.337268     2.115211 C          1 UNL1 0.000
    21 C      -7.039042    -3.616929     1.810051 C          1 UNL1 0.000
    22 C      -1.946613     0.517715     1.681120 C          1 UNL1 0.000
    23 C      -1.288515     0.523164     2.912488 C          1 UNL1 0.000
    24 C       0.102738     0.513043     2.931141 C          1 UNL1 0.000
    25 C       0.817691     0.502570     1.729085 C          1 UNL1 0.000
    26 C       0.155960     0.503979     0.487887 C          1 UNL1 0.000
    27 C      -1.245176     0.509080     0.471750 C          1 UNL1 0.000
    28 H      -4.352934     5.040109     1.942011 H          1 UNL1 0.000
    29 H      -2.660125     3.270481     1.874550 H          1 UNL1 0.000
    30 H      -2.721499    -2.220013     1.379878 H          1 UNL1 0.000
    31 H      -4.447609    -3.959268     1.399988 H          1 UNL1 0.000
    32 H      -6.651679     5.773199     1.840647 H          1 UNL1 0.000
    33 H      -9.035656     5.302895     1.475441 H          1 UNL1 0.000
    34 H      -9.783288     2.983369     1.014565 H          1 UNL1 0.000
    35 H      -8.165641     1.156291     0.951515 H          1 UNL1 0.000
    36 H      -8.119067    -0.013724     2.644924 H          1 UNL1 0.000
    37 H      -9.769349    -1.812289     2.686431 H          1 UNL1 0.000
    38 H      -9.095561    -4.142468     2.169267 H          1 UNL1 0.000
    39 H      -6.749637    -4.653163     1.644957 H          1 UNL1 0.000
    40 H      -1.845990     0.530758     3.846036 H          1 UNL1 0.000
    41 H       0.635429     0.514883     3.878650 H          1 UNL1 0.000
    42 H       1.906166     0.500710     1.760651 H          1 UNL1 0.000
    43 H      -1.779923     0.507758    -0.476207 H          1 UNL1 0.000
    44 C       0.923600     0.505739    -0.760792 C          1 UNL1 0.000
    45 C       1.075419     1.686499    -1.501479 C          1 UNL1 0.000
    46 C       1.823450     1.725173    -2.684605 C          1 UNL1 0.000
    47 C       2.417801     0.533613    -3.111047 C          1 UNL1 0.000
    48 C       2.287344    -0.664674    -2.410660 C          1 UNL1 0.000
    49 C       1.531706    -0.676594    -1.221541 C          1 UNL1 0.000
    50 N       3.200166     0.274402    -4.214017 N          1 UNL1 0.000
    51 C       3.564016    -1.046070    -4.236552 C          1 UNL1 0.000
    52 C       3.011268    -1.653481    -3.132313 C          1 UNL1 0.000
    53 H       0.610827     2.606157    -1.148604 H          1 UNL1 0.000
    54 H       1.935895     2.649733    -3.241046 H          1 UNL1 0.000
    55 H       1.421602    -1.602756    -0.663749 H          1 UNL1 0.000
    56 H       3.464340     0.964163    -4.903644 H          1 UNL1 0.000
    57 H       4.182093    -1.437868    -5.032995 H          1 UNL1 0.000
    58 H       3.115829    -2.697381    -2.867594 H          1 UNL1 0.000
@<TRIPOS>BOND
     1      1      2   2
     2      2      3   1
     3      3      4   2
     4      4      5   1
     5      5      6   2
     6      6      1   1
     7      4      7   1
     8      7      8   1
     9      8      9   2
    10      9     10   1
    11     10     11   2
    12     11     12   1
    13     12     13   2
    14     13      8   1
    15     13      5   1
    16      1     14   1
    17     14     15   2
    18     15     16   1
    19     16     17   2
    20     17      6   1
    21     12     18   1
    22     18     19   2
    23     19     20   1
    24     20     21   2
    25     21     11   1
    26     22     23   2
    27     23     24   1
    28     24     25   2
    29     25     26   1
    30     26     27   2
    31     27     22   1
    32      7     22   1
    33      2     28   1
    34      3     29   1
    35      9     30   1
    36     10     31   1
    37     14     32   1
    38     15     33   1
    39     16     34   1
    40     17     35   1
    41     18     36   1
    42     19     37   1
    43     20     38   1
    44     21     39   1
    45     23     40   1
    46     24     41   1
    47     25     42   1
    48     27     43   1
    49     44     45   2
    50     45     46   1
    51     46     47   2
    52     47     48   1
    53     48     49   2
    54     49     44   1
    55     47     50   1
    56     50     51   1
    57     51     52   2
    58     52     48   1
    59     45     53   1
    60     46     54   1
    61     49     55   1
    62     50     56   1
    63     51     57   1
    64     52     58   1
    65     26     44   1
