# Produced with molli package
@<TRIPOS>MOLECULE
D_9_N
51 57 0 0 0
SMALL
USER_CHARGES

@<TRIPOS>ATOM
     1 C      -6.182023     3.718310     1.652507 C          1 UNL1 0.000
     2 C      -4.858699     4.041169     1.359240 C          1 UNL1 0.000
     3 C      -3.864495     3.067158     1.357184 C          1 UNL1 0.000
     4 C      -4.235080     1.728780     1.567283 C          1 UNL1 0.000
     5 C      -5.564558     1.325032     1.747840 C          1 UNL1 0.000
     6 C      -6.550272     2.368376     1.901665 C          1 UNL1 0.000
     7 N      -3.440795     0.606505     1.695820 N          1 UNL1 0.000
     8 C      -4.217198    -0.523323     1.858838 C          1 UNL1 0.000
     9 C      -3.825594    -1.855822     2.067415 C          1 UNL1 0.000
    10 C      -4.810965    -2.837453     2.124343 C          1 UNL1 0.000
    11 C      -6.148993    -2.529493     1.885694 C          1 UNL1 0.000
    12 C      -6.538444    -1.187119     1.629809 C          1 UNL1 0.000
    13 C      -5.557101    -0.133897     1.730180 C          1 UNL1 0.000
    14 C      -7.145929     4.735922     1.743137 C          1 UNL1 0.000
    15 C      -8.455124     4.451391     2.127504 C          1 UNL1 0.000
    16 C      -8.807999     3.149941     2.458045 C          1 UNL1 0.000
    17 C      -7.863086     2.125096     2.363106 C          1 UNL1 0.000
    18 C      -7.871330    -0.960156     1.220895 C          1 UNL1 0.000
    19 C      -8.812535    -1.992118     1.188268 C          1 UNL1 0.000
    20 C      -8.436846    -3.284313     1.530335 C          1 UNL1 0.000
    21 C      -7.109530    -3.553988     1.859854 C          1 UNL1 0.000
    22 C      -2.030071     0.621564     1.704388 C          1 UNL1 0.000
    23 C      -1.360200     0.662282     2.930028 C          1 UNL1 0.000
    24 C       0.032304     0.707691     2.938179 C          1 UNL1 0.000
    25 C       0.739843     0.702970     1.732165 C          1 UNL1 0.000
    26 C       0.058321     0.647029     0.507988 C          1 UNL1 0.000
    27 C      -1.339149     0.613991     0.489743 C          1 UNL1 0.000
    28 H      -4.568888     5.076006     1.187439 H          1 UNL1 0.000
    29 H      -2.825880     3.347875     1.203871 H          1 UNL1 0.000
    30 H      -2.778957    -2.125440     2.180566 H          1 UNL1 0.000
    31 H      -4.505650    -3.867080     2.300535 H          1 UNL1 0.000
    32 H      -6.877230     5.769421     1.534712 H          1 UNL1 0.000
    33 H      -9.186815     5.251384     2.201372 H          1 UNL1 0.000
    34 H      -9.813647     2.929068     2.806184 H          1 UNL1 0.000
    35 H      -8.153816     1.139253     2.710225 H          1 UNL1 0.000
    36 H      -8.182570     0.017925     0.868734 H          1 UNL1 0.000
    37 H      -9.834134    -1.784279     0.880928 H          1 UNL1 0.000
    38 H      -9.166360    -4.089393     1.507704 H          1 UNL1 0.000
    39 H      -6.825308    -4.581243     2.078202 H          1 UNL1 0.000
    40 H      -1.910108     0.673299     3.868329 H          1 UNL1 0.000
    41 H       0.569947     0.748393     3.882267 H          1 UNL1 0.000
    42 H       1.827398     0.733285     1.752679 H          1 UNL1 0.000
    43 H      -1.878588     0.582251    -0.454338 H          1 UNL1 0.000
    44 C       0.808865     0.630365    -0.734524 C          1 UNL1 0.000
    45 C       0.893020    -0.510880    -1.507154 C          1 UNL1 0.000
    46 S       1.850229    -0.277116    -2.907583 S          1 UNL1 0.000
    47 C       2.160691     1.352452    -2.490131 C          1 UNL1 0.000
    48 C       1.552350     1.708469    -1.306214 C          1 UNL1 0.000
    49 H       0.446965    -1.478463    -1.319058 H          1 UNL1 0.000
    50 H       2.775010     1.969491    -3.131331 H          1 UNL1 0.000
    51 H       1.630516     2.698719    -0.873999 H          1 UNL1 0.000
@<TRIPOS>BOND
     1      1      2   2
     2      2      3   1
     3      3      4   2
     4      4      5   1
     5      5      6   2
     6      6      1   1
     7      4      7   1
     8      7      8   1
     9      8      9   2
    10      9     10   1
    11     10     11   2
    12     11     12   1
    13     12     13   2
    14     13      8   1
    15     13      5   1
    16      1     14   1
    17     14     15   2
    18     15     16   1
    19     16     17   2
    20     17      6   1
    21     12     18   1
    22     18     19   2
    23     19     20   1
    24     20     21   2
    25     21     11   1
    26     22     23   2
    27     23     24   1
    28     24     25   2
    29     25     26   1
    30     26     27   2
    31     27     22   1
    32      7     22   1
    33      2     28   1
    34      3     29   1
    35      9     30   1
    36     10     31   1
    37     14     32   1
    38     15     33   1
    39     16     34   1
    40     17     35   1
    41     18     36   1
    42     19     37   1
    43     20     38   1
    44     21     39   1
    45     23     40   1
    46     24     41   1
    47     25     42   1
    48     27     43   1
    49     44     45   2
    50     45     46   1
    51     46     47   1
    52     47     48   2
    53     48     44   1
    54     45     49   1
    55     47     50   1
    56     48     51   1
    57     26     44   1
