# Produced with molli package
@<TRIPOS>MOLECULE
E_10_K
50 53 0 0 0
SMALL
USER_CHARGES

@<TRIPOS>ATOM
     1 C      -5.287048     4.287437    -0.803702 C          1 UNL1 0.000
     2 C      -5.881516     3.154765    -1.352755 C          1 UNL1 0.000
     3 C      -5.215066     1.920895    -1.310149 C          1 UNL1 0.000
     4 C      -3.962054     1.785164    -0.686763 C          1 UNL1 0.000
     5 C      -3.383698     2.953307    -0.148828 C          1 UNL1 0.000
     6 C      -4.042863     4.185542    -0.194584 C          1 UNL1 0.000
     7 N      -3.268239     0.516403    -0.614729 N          1 UNL1 0.000
     8 C      -3.933071    -0.767902    -0.546734 C          1 UNL1 0.000
     9 C      -5.217990    -0.917065     0.004284 C          1 UNL1 0.000
    10 C      -5.856610    -2.163097     0.042330 C          1 UNL1 0.000
    11 C      -5.211414    -3.296854    -0.441513 C          1 UNL1 0.000
    12 C      -3.925153    -3.187496    -0.955917 C          1 UNL1 0.000
    13 C      -3.295388    -1.939442    -1.006058 C          1 UNL1 0.000
    14 O      -5.892534     5.512095    -0.756551 O          1 UNL1 0.000
    15 C      -6.355565     5.956218    -2.029023 C          1 UNL1 0.000
    16 C      -1.830253     0.539748    -0.624002 C          1 UNL1 0.000
    17 C      -1.138271     0.720284    -1.827059 C          1 UNL1 0.000
    18 C       0.248582     0.748626    -1.818464 C          1 UNL1 0.000
    19 C       0.964189     0.638115    -0.630425 C          1 UNL1 0.000
    20 C       0.290284     0.483827     0.588823 C          1 UNL1 0.000
    21 C      -1.110897     0.407954     0.577458 C          1 UNL1 0.000
    22 F       0.911735     0.896367    -2.972746 F          1 UNL1 0.000
    23 H      -6.870107     3.203798    -1.798059 H          1 UNL1 0.000
    24 H      -5.693264     1.065585    -1.780769 H          1 UNL1 0.000
    25 H      -2.414343     2.921760     0.340245 H          1 UNL1 0.000
    26 H      -3.579875     5.064564     0.245475 H          1 UNL1 0.000
    27 H      -5.740503    -0.065262     0.431510 H          1 UNL1 0.000
    28 H      -6.857664    -2.245510     0.458057 H          1 UNL1 0.000
    29 H      -5.705803    -4.264197    -0.410000 H          1 UNL1 0.000
    30 H      -3.407408    -4.069579    -1.324118 H          1 UNL1 0.000
    31 H      -2.295367    -1.900257    -1.429381 H          1 UNL1 0.000
    32 H      -5.555001     5.917446    -2.776034 H          1 UNL1 0.000
    33 H      -6.666020     7.000333    -1.922616 H          1 UNL1 0.000
    34 H      -7.226288     5.383657    -2.361677 H          1 UNL1 0.000
    35 H      -1.674862     0.823005    -2.764670 H          1 UNL1 0.000
    36 H       2.049094     0.690276    -0.664645 H          1 UNL1 0.000
    37 H      -1.659038     0.286581     1.510563 H          1 UNL1 0.000
    38 C       1.035262     0.458795     1.848588 C          1 UNL1 0.000
    39 C       1.292769     1.658307     2.536399 C          1 UNL1 0.000
    40 C       2.032141     1.661498     3.721352 C          1 UNL1 0.000
    41 C       2.513500     0.450758     4.227824 C          1 UNL1 0.000
    42 C       2.258702    -0.757202     3.567382 C          1 UNL1 0.000
    43 C       1.521941    -0.746269     2.378699 C          1 UNL1 0.000
    44 N       3.301108     0.446488     5.460785 N          1 UNL1 0.000
    45 O       3.320126    -0.595416     6.126505 O          1 UNL1 0.000
    46 O       3.902737     1.491081     5.758034 O          1 UNL1 0.000
    47 H       0.920646     2.602772     2.141029 H          1 UNL1 0.000
    48 H       2.222927     2.603941     4.230824 H          1 UNL1 0.000
    49 H       2.631743    -1.702008     3.956700 H          1 UNL1 0.000
    50 H       1.332358    -1.685358     1.860913 H          1 UNL1 0.000
@<TRIPOS>BOND
     1      1      2   2
     2      2      3   1
     3      3      4   2
     4      4      5   1
     5      5      6   2
     6      6      1   1
     7      4      7   1
     8      7      8   1
     9      8      9   2
    10      9     10   1
    11     10     11   2
    12     11     12   1
    13     12     13   2
    14     13      8   1
    15     14     15   1
    16      1     14   1
    17     16     17   2
    18     17     18   1
    19     18     19   2
    20     19     20   1
    21     20     21   2
    22     21     16   1
    23     18     22   1
    24      7     16   1
    25      2     23   1
    26      3     24   1
    27      5     25   1
    28      6     26   1
    29      9     27   1
    30     10     28   1
    31     11     29   1
    32     12     30   1
    33     13     31   1
    34     15     32   1
    35     15     33   1
    36     15     34   1
    37     17     35   1
    38     19     36   1
    39     21     37   1
    40     38     39   2
    41     39     40   1
    42     40     41   2
    43     41     42   1
    44     42     43   2
    45     43     38   1
    46     44     45   2
    47     44     46   1
    48     41     44   1
    49     39     47   1
    50     40     48   1
    51     42     49   1
    52     43     50   1
    53     20     38   1
