# Produced with molli package
@<TRIPOS>MOLECULE
E_10_Q
46 49 0 0 0
SMALL
USER_CHARGES

@<TRIPOS>ATOM
     1 C      -5.168282     4.240339    -1.069711 C          1 UNL1 0.000
     2 C      -5.702729     3.107404    -1.678779 C          1 UNL1 0.000
     3 C      -5.036120     1.879184    -1.578692 C          1 UNL1 0.000
     4 C      -3.836730     1.757518    -0.854943 C          1 UNL1 0.000
     5 C      -3.320306     2.917881    -0.248396 C          1 UNL1 0.000
     6 C      -3.988448     4.141872    -0.340343 C          1 UNL1 0.000
     7 N      -3.142833     0.496239    -0.750227 N          1 UNL1 0.000
     8 C      -3.827967    -0.769675    -0.634162 C          1 UNL1 0.000
     9 C      -5.082162    -0.872755    -0.006063 C          1 UNL1 0.000
    10 C      -5.745198    -2.100550     0.096336 C          1 UNL1 0.000
    11 C      -5.161256    -3.255241    -0.415966 C          1 UNL1 0.000
    12 C      -3.911676    -3.184858    -1.022979 C          1 UNL1 0.000
    13 C      -3.251048    -1.956448    -1.126238 C          1 UNL1 0.000
    14 O      -5.771229     5.467488    -1.087121 O          1 UNL1 0.000
    15 C      -6.167496     5.880009    -2.392399 C          1 UNL1 0.000
    16 C      -1.707498     0.512318    -0.751616 C          1 UNL1 0.000
    17 C      -1.005267     0.703534    -1.947042 C          1 UNL1 0.000
    18 C       0.381613     0.724913    -1.927514 C          1 UNL1 0.000
    19 C       1.090441     0.590128    -0.738259 C          1 UNL1 0.000
    20 C       0.407425     0.425559     0.476173 C          1 UNL1 0.000
    21 C      -0.995655     0.367031     0.450998 C          1 UNL1 0.000
    22 F       1.053506     0.889660    -3.075648 F          1 UNL1 0.000
    23 H      -6.643130     3.152324    -2.218292 H          1 UNL1 0.000
    24 H      -5.461042     1.015249    -2.084305 H          1 UNL1 0.000
    25 H      -2.400933     2.881191     0.330348 H          1 UNL1 0.000
    26 H      -3.579876     5.019216     0.153734 H          1 UNL1 0.000
    27 H      -5.552633     0.004211     0.431980 H          1 UNL1 0.000
    28 H      -6.715916    -2.152073     0.582669 H          1 UNL1 0.000
    29 H      -5.676304    -4.209054    -0.337306 H          1 UNL1 0.000
    30 H      -3.448045    -4.083694    -1.421348 H          1 UNL1 0.000
    31 H      -2.283231    -1.939296    -1.619938 H          1 UNL1 0.000
    32 H      -5.351905     5.758477    -3.114216 H          1 UNL1 0.000
    33 H      -6.415516     6.944725    -2.342839 H          1 UNL1 0.000
    34 H      -7.062645     5.344583    -2.722435 H          1 UNL1 0.000
    35 H      -1.534229     0.825352    -2.886409 H          1 UNL1 0.000
    36 H       2.175075     0.650981    -0.765657 H          1 UNL1 0.000
    37 H      -1.548867     0.252836     1.382972 H          1 UNL1 0.000
    38 C       1.131322     0.379975     1.743196 C          1 UNL1 0.000
    39 N       1.015028     1.481886     2.528747 N          1 UNL1 0.000
    40 C       1.715328     1.459463     3.685592 C          1 UNL1 0.000
    41 C       2.496934     0.380485     4.060432 C          1 UNL1 0.000
    42 N       2.615472    -0.727364     3.294793 N          1 UNL1 0.000
    43 C       1.918178    -0.700922     2.131595 C          1 UNL1 0.000
    44 H       1.633242     2.343972     4.307183 H          1 UNL1 0.000
    45 H       3.052458     0.379589     4.991108 H          1 UNL1 0.000
    46 H       2.009446    -1.587652     1.513387 H          1 UNL1 0.000
@<TRIPOS>BOND
     1      1      2   2
     2      2      3   1
     3      3      4   2
     4      4      5   1
     5      5      6   2
     6      6      1   1
     7      4      7   1
     8      7      8   1
     9      8      9   2
    10      9     10   1
    11     10     11   2
    12     11     12   1
    13     12     13   2
    14     13      8   1
    15     14     15   1
    16      1     14   1
    17     16     17   2
    18     17     18   1
    19     18     19   2
    20     19     20   1
    21     20     21   2
    22     21     16   1
    23     18     22   1
    24      7     16   1
    25      2     23   1
    26      3     24   1
    27      5     25   1
    28      6     26   1
    29      9     27   1
    30     10     28   1
    31     11     29   1
    32     12     30   1
    33     13     31   1
    34     15     32   1
    35     15     33   1
    36     15     34   1
    37     17     35   1
    38     19     36   1
    39     21     37   1
    40     38     39   2
    41     39     40   1
    42     40     41   2
    43     41     42   1
    44     42     43   2
    45     43     38   1
    46     40     44   1
    47     41     45   1
    48     43     46   1
    49     20     38   1
