# Produced with molli package
@<TRIPOS>MOLECULE
E_10_P
52 55 0 0 0
SMALL
USER_CHARGES

@<TRIPOS>ATOM
     1 C      -5.208116     4.362339    -0.616306 C          1 UNL1 0.000
     2 C      -5.795546     3.244451    -0.035196 C          1 UNL1 0.000
     3 C      -5.128624     2.013754    -0.056973 C          1 UNL1 0.000
     4 C      -3.866078     1.877326    -0.662351 C          1 UNL1 0.000
     5 C      -3.268520     3.044273    -1.180390 C          1 UNL1 0.000
     6 C      -3.929853     4.276505    -1.155937 C          1 UNL1 0.000
     7 N      -3.189385     0.602433    -0.732819 N          1 UNL1 0.000
     8 C      -3.880569    -0.664304    -0.848436 C          1 UNL1 0.000
     9 C      -5.131485    -0.776573    -1.479760 C          1 UNL1 0.000
    10 C      -5.786849    -2.009467    -1.582069 C          1 UNL1 0.000
    11 C      -5.194406    -3.162643    -1.075824 C          1 UNL1 0.000
    12 C      -3.945579    -3.085672    -0.470312 C          1 UNL1 0.000
    13 C      -3.297829    -1.851644    -0.359003 C          1 UNL1 0.000
    14 O      -5.894711     5.544178    -0.571027 O          1 UNL1 0.000
    15 C      -6.204283     6.012478    -1.884404 C          1 UNL1 0.000
    16 C      -1.752202     0.586785    -0.736035 C          1 UNL1 0.000
    17 C      -1.051421     0.365430    -1.927275 C          1 UNL1 0.000
    18 C       0.334231     0.315136    -1.903640 C          1 UNL1 0.000
    19 C       1.039867     0.441984    -0.711467 C          1 UNL1 0.000
    20 C       0.358637     0.642695     0.498196 C          1 UNL1 0.000
    21 C      -1.041631     0.744702     0.466553 C          1 UNL1 0.000
    22 F       1.006091     0.125241    -3.047313 F          1 UNL1 0.000
    23 H      -6.774595     3.324640     0.428554 H          1 UNL1 0.000
    24 H      -5.606802     1.161461     0.419418 H          1 UNL1 0.000
    25 H      -2.280505     3.009894    -1.631480 H          1 UNL1 0.000
    26 H      -3.435143     5.157324    -1.553575 H          1 UNL1 0.000
    27 H      -5.608252     0.094088    -1.922075 H          1 UNL1 0.000
    28 H      -6.758406    -2.066968    -2.065949 H          1 UNL1 0.000
    29 H      -5.701290    -4.120323    -1.158957 H          1 UNL1 0.000
    30 H      -3.470849    -3.982298    -0.080196 H          1 UNL1 0.000
    31 H      -2.329298    -1.832736     0.133888 H          1 UNL1 0.000
    32 H      -5.303401     6.312445    -2.429563 H          1 UNL1 0.000
    33 H      -6.842224     6.895660    -1.783430 H          1 UNL1 0.000
    34 H      -6.760414     5.256397    -2.450485 H          1 UNL1 0.000
    35 H      -1.580662     0.240558    -2.866205 H          1 UNL1 0.000
    36 H       2.124147     0.374791    -0.734424 H          1 UNL1 0.000
    37 H      -1.597927     0.889193     1.391860 H          1 UNL1 0.000
    38 C       1.086744     0.686476     1.770728 C          1 UNL1 0.000
    39 C       1.771262    -0.451069     2.234274 C          1 UNL1 0.000
    40 C       2.458767    -0.430389     3.449593 C          1 UNL1 0.000
    41 C       2.482407     0.738380     4.205029 C          1 UNL1 0.000
    42 C       1.786978     1.866887     3.780563 C          1 UNL1 0.000
    43 C       1.097748     1.843249     2.564976 C          1 UNL1 0.000
    44 O       3.121112     0.792565     5.413309 O          1 UNL1 0.000
    45 C       4.537038     0.732246     5.241360 C          1 UNL1 0.000
    46 H       1.753071    -1.372644     1.655285 H          1 UNL1 0.000
    47 H       2.954258    -1.328722     3.804914 H          1 UNL1 0.000
    48 H       1.785115     2.765044     4.391385 H          1 UNL1 0.000
    49 H       0.568862     2.736597     2.239514 H          1 UNL1 0.000
    50 H       4.999701     0.895976     6.219186 H          1 UNL1 0.000
    51 H       4.886083     1.521044     4.565226 H          1 UNL1 0.000
    52 H       4.855565    -0.250840     4.879388 H          1 UNL1 0.000
@<TRIPOS>BOND
     1      1      2   2
     2      2      3   1
     3      3      4   2
     4      4      5   1
     5      5      6   2
     6      6      1   1
     7      4      7   1
     8      7      8   1
     9      8      9   2
    10      9     10   1
    11     10     11   2
    12     11     12   1
    13     12     13   2
    14     13      8   1
    15     14     15   1
    16      1     14   1
    17     16     17   2
    18     17     18   1
    19     18     19   2
    20     19     20   1
    21     20     21   2
    22     21     16   1
    23     18     22   1
    24      7     16   1
    25      2     23   1
    26      3     24   1
    27      5     25   1
    28      6     26   1
    29      9     27   1
    30     10     28   1
    31     11     29   1
    32     12     30   1
    33     13     31   1
    34     15     32   1
    35     15     33   1
    36     15     34   1
    37     17     35   1
    38     19     36   1
    39     21     37   1
    40     38     39   2
    41     39     40   1
    42     40     41   2
    43     41     42   1
    44     42     43   2
    45     43     38   1
    46     44     45   1
    47     41     44   1
    48     39     46   1
    49     40     47   1
    50     42     48   1
    51     43     49   1
    52     45     50   1
    53     45     51   1
    54     45     52   1
    55     20     38   1
