# Produced with molli package
@<TRIPOS>MOLECULE
E_10_L
52 56 0 0 0
SMALL
USER_CHARGES

@<TRIPOS>ATOM
     1 C      -5.169003     4.278871    -0.951248 C          1 UNL1 0.000
     2 C      -5.756416     3.146259    -1.509852 C          1 UNL1 0.000
     3 C      -5.112734     1.901942    -1.421885 C          1 UNL1 0.000
     4 C      -3.886331     1.757164    -0.750914 C          1 UNL1 0.000
     5 C      -3.315151     2.920791    -0.198965 C          1 UNL1 0.000
     6 C      -3.953707     4.161094    -0.286560 C          1 UNL1 0.000
     7 N      -3.206446     0.483895    -0.651941 N          1 UNL1 0.000
     8 C      -3.886323    -0.790513    -0.565938 C          1 UNL1 0.000
     9 C      -5.182465    -0.910405    -0.033764 C          1 UNL1 0.000
    10 C      -5.837401    -2.147034     0.024102 C          1 UNL1 0.000
    11 C      -5.199099    -3.299695    -0.422654 C          1 UNL1 0.000
    12 C      -3.903514    -3.218304    -0.918981 C          1 UNL1 0.000
    13 C      -3.256387    -1.979894    -0.987343 C          1 UNL1 0.000
    14 O      -5.721752     5.529025    -0.956181 O          1 UNL1 0.000
    15 C      -6.385928     5.877270    -2.166217 C          1 UNL1 0.000
    16 C      -1.768388     0.497427    -0.668128 C          1 UNL1 0.000
    17 C      -1.081055     0.661073    -1.876522 C          1 UNL1 0.000
    18 C       0.305948     0.696643    -1.873839 C          1 UNL1 0.000
    19 C       1.026266     0.609906    -0.686988 C          1 UNL1 0.000
    20 C       0.356910     0.472790     0.536777 C          1 UNL1 0.000
    21 C      -1.043985     0.387440     0.531763 C          1 UNL1 0.000
    22 F       0.963149     0.833466    -3.033108 F          1 UNL1 0.000
    23 H      -6.720713     3.197743    -2.004531 H          1 UNL1 0.000
    24 H      -5.582536     1.046380    -1.900726 H          1 UNL1 0.000
    25 H      -2.366630     2.879647     0.328993 H          1 UNL1 0.000
    26 H      -3.492396     5.038136     0.159700 H          1 UNL1 0.000
    27 H      -5.700330    -0.041686     0.364017 H          1 UNL1 0.000
    28 H      -6.845197    -2.207063     0.426934 H          1 UNL1 0.000
    29 H      -5.705668    -4.259991    -0.375382 H          1 UNL1 0.000
    30 H      -3.390913    -4.115151    -1.257429 H          1 UNL1 0.000
    31 H      -2.248325    -1.962867    -1.392941 H          1 UNL1 0.000
    32 H      -5.751412     5.683054    -3.038016 H          1 UNL1 0.000
    33 H      -6.590708     6.951931    -2.134167 H          1 UNL1 0.000
    34 H      -7.345285     5.359274    -2.255206 H          1 UNL1 0.000
    35 H      -1.621369     0.750085    -2.813236 H          1 UNL1 0.000
    36 H       2.110636     0.671114    -0.722478 H          1 UNL1 0.000
    37 H      -1.585471     0.280273     1.470446 H          1 UNL1 0.000
    38 C       1.104140     0.483897     1.796043 C          1 UNL1 0.000
    39 C       1.293146     1.691661     2.485273 C          1 UNL1 0.000
    40 C       2.022668     1.756526     3.677239 C          1 UNL1 0.000
    41 C       2.563383     0.564390     4.165176 C          1 UNL1 0.000
    42 C       2.395566    -0.659730     3.517263 C          1 UNL1 0.000
    43 C       1.655034    -0.699106     2.318272 C          1 UNL1 0.000
    44 N       3.320146     0.326708     5.289633 N          1 UNL1 0.000
    45 C       3.635496    -1.002349     5.377577 C          1 UNL1 0.000
    46 C       3.073755    -1.639570     4.293571 C          1 UNL1 0.000
    47 H       0.869798     2.611778     2.084439 H          1 UNL1 0.000
    48 H       2.162724     2.700832     4.193283 H          1 UNL1 0.000
    49 H       1.517891    -1.644667     1.800684 H          1 UNL1 0.000
    50 H       3.601668     1.038768     5.951452 H          1 UNL1 0.000
    51 H       4.229358    -1.379205     6.198617 H          1 UNL1 0.000
    52 H       3.144313    -2.697200     4.078122 H          1 UNL1 0.000
@<TRIPOS>BOND
     1      1      2   2
     2      2      3   1
     3      3      4   2
     4      4      5   1
     5      5      6   2
     6      6      1   1
     7      4      7   1
     8      7      8   1
     9      8      9   2
    10      9     10   1
    11     10     11   2
    12     11     12   1
    13     12     13   2
    14     13      8   1
    15     14     15   1
    16      1     14   1
    17     16     17   2
    18     17     18   1
    19     18     19   2
    20     19     20   1
    21     20     21   2
    22     21     16   1
    23     18     22   1
    24      7     16   1
    25      2     23   1
    26      3     24   1
    27      5     25   1
    28      6     26   1
    29      9     27   1
    30     10     28   1
    31     11     29   1
    32     12     30   1
    33     13     31   1
    34     15     32   1
    35     15     33   1
    36     15     34   1
    37     17     35   1
    38     19     36   1
    39     21     37   1
    40     38     39   2
    41     39     40   1
    42     40     41   2
    43     41     42   1
    44     42     43   2
    45     43     38   1
    46     41     44   1
    47     44     45   1
    48     45     46   2
    49     46     42   1
    50     39     47   1
    51     40     48   1
    52     43     49   1
    53     44     50   1
    54     45     51   1
    55     46     52   1
    56     20     38   1
