# Produced with molli package
@<TRIPOS>MOLECULE
E_10_S
53 56 0 0 0
SMALL
USER_CHARGES

@<TRIPOS>ATOM
     1 C      -5.271110     4.312590    -0.601809 C          1 UNL1 0.000
     2 C      -5.911621     3.176272    -0.123948 C          1 UNL1 0.000
     3 C      -5.237484     1.947391    -0.105036 C          1 UNL1 0.000
     4 C      -3.921434     1.822621    -0.586153 C          1 UNL1 0.000
     5 C      -3.277573     3.013943    -0.986912 C          1 UNL1 0.000
     6 C      -3.939469     4.246502    -0.989096 C          1 UNL1 0.000
     7 N      -3.232059     0.548655    -0.644219 N          1 UNL1 0.000
     8 C      -3.891047    -0.739373    -0.760406 C          1 UNL1 0.000
     9 C      -5.159526    -0.893273    -1.345372 C          1 UNL1 0.000
    10 C      -5.781926    -2.146507    -1.425226 C          1 UNL1 0.000
    11 C      -5.131731    -3.285144    -0.960271 C          1 UNL1 0.000
    12 C      -3.856948    -3.173326    -0.420788 C          1 UNL1 0.000
    13 C      -3.248512    -1.917856    -0.320950 C          1 UNL1 0.000
    14 O      -5.962650     5.492015    -0.607166 O          1 UNL1 0.000
    15 C      -6.147847     5.969614    -1.941125 C          1 UNL1 0.000
    16 C      -1.792452     0.555770    -0.669325 C          1 UNL1 0.000
    17 C      -1.110535     0.441957    -1.886804 C          1 UNL1 0.000
    18 C       0.276050     0.421637    -1.891791 C          1 UNL1 0.000
    19 C       1.001198     0.475368    -0.705585 C          1 UNL1 0.000
    20 C       0.339379     0.569622     0.527245 C          1 UNL1 0.000
    21 C      -1.063089     0.638643     0.530524 C          1 UNL1 0.000
    22 F       0.929797     0.336614    -3.057753 F          1 UNL1 0.000
    23 H      -6.937338     3.239917     0.228329 H          1 UNL1 0.000
    24 H      -5.763547     1.089599     0.304905 H          1 UNL1 0.000
    25 H      -2.243856     3.007258    -1.321224 H          1 UNL1 0.000
    26 H      -3.404987     5.142030    -1.291369 H          1 UNL1 0.000
    27 H      -5.683746    -0.042811    -1.771655 H          1 UNL1 0.000
    28 H      -6.774056    -2.230778    -1.861489 H          1 UNL1 0.000
    29 H      -5.611910    -4.257654    -1.028124 H          1 UNL1 0.000
    30 H      -3.330687    -4.058321    -0.072516 H          1 UNL1 0.000
    31 H      -2.256555    -1.880233     0.120764 H          1 UNL1 0.000
    32 H      -5.197397     6.247519    -2.408758 H          1 UNL1 0.000
    33 H      -6.770595     6.867920    -1.892871 H          1 UNL1 0.000
    34 H      -6.671691     5.226747    -2.553599 H          1 UNL1 0.000
    35 H      -1.655437     0.379883    -2.823226 H          1 UNL1 0.000
    36 H       2.086276     0.438173    -0.752944 H          1 UNL1 0.000
    37 H      -1.604725     0.707175     1.472798 H          1 UNL1 0.000
    38 C       1.096614     0.549643     1.781878 C          1 UNL1 0.000
    39 C       1.213618     1.695033     2.577839 C          1 UNL1 0.000
    40 C       1.949320     1.663552     3.767673 C          1 UNL1 0.000
    41 C       2.577196     0.483689     4.190984 C          1 UNL1 0.000
    42 C       2.468199    -0.663552     3.400061 C          1 UNL1 0.000
    43 C       1.731236    -0.627832     2.209661 C          1 UNL1 0.000
    44 C       3.348305     0.514470     5.470228 C          1 UNL1 0.000
    45 C       3.879371    -0.764622     6.064333 C          1 UNL1 0.000
    46 O       3.563885     1.594463     6.021435 O          1 UNL1 0.000
    47 H       0.741096     2.626824     2.272269 H          1 UNL1 0.000
    48 H       2.031461     2.571656     4.363262 H          1 UNL1 0.000
    49 H       2.949500    -1.597474     3.672454 H          1 UNL1 0.000
    50 H       1.651000    -1.534801     1.611652 H          1 UNL1 0.000
    51 H       4.909470    -0.919816     5.733968 H          1 UNL1 0.000
    52 H       3.265983    -1.630164     5.808767 H          1 UNL1 0.000
    53 H       3.857817    -0.678184     7.155531 H          1 UNL1 0.000
@<TRIPOS>BOND
     1      1      2   2
     2      2      3   1
     3      3      4   2
     4      4      5   1
     5      5      6   2
     6      6      1   1
     7      4      7   1
     8      7      8   1
     9      8      9   2
    10      9     10   1
    11     10     11   2
    12     11     12   1
    13     12     13   2
    14     13      8   1
    15     14     15   1
    16      1     14   1
    17     16     17   2
    18     17     18   1
    19     18     19   2
    20     19     20   1
    21     20     21   2
    22     21     16   1
    23     18     22   1
    24      7     16   1
    25      2     23   1
    26      3     24   1
    27      5     25   1
    28      6     26   1
    29      9     27   1
    30     10     28   1
    31     11     29   1
    32     12     30   1
    33     13     31   1
    34     15     32   1
    35     15     33   1
    36     15     34   1
    37     17     35   1
    38     19     36   1
    39     21     37   1
    40     38     39   2
    41     39     40   1
    42     40     41   2
    43     41     42   1
    44     42     43   2
    45     43     38   1
    46     41     44   1
    47     44     45   1
    48     44     46   2
    49     39     47   1
    50     40     48   1
    51     42     49   1
    52     43     50   1
    53     45     51   1
    54     45     52   1
    55     45     53   1
    56     20     38   1
