# Produced with molli package
@<TRIPOS>MOLECULE
E_10_M
49 52 0 0 0
SMALL
USER_CHARGES

@<TRIPOS>ATOM
     1 C      -5.204517     4.380674    -0.972138 C          1 UNL1 0.000
     2 C      -5.852950     3.228709    -1.402724 C          1 UNL1 0.000
     3 C      -5.182687     1.996258    -1.382702 C          1 UNL1 0.000
     4 C      -3.878589     1.872470    -0.870451 C          1 UNL1 0.000
     5 C      -3.243984     3.068470    -0.466621 C          1 UNL1 0.000
     6 C      -3.899271     4.304955    -0.508187 C          1 UNL1 0.000
     7 N      -3.190910     0.597340    -0.771677 N          1 UNL1 0.000
     8 C      -3.847759    -0.696603    -0.714060 C          1 UNL1 0.000
     9 C      -5.150605    -0.866056    -0.214977 C          1 UNL1 0.000
    10 C      -5.784037    -2.116734    -0.224788 C          1 UNL1 0.000
    11 C      -5.109278    -3.242629    -0.684625 C          1 UNL1 0.000
    12 C      -3.796868    -3.121551    -1.121091 C          1 UNL1 0.000
    13 C      -3.177806    -1.866871    -1.135139 C          1 UNL1 0.000
    14 O      -5.838798     5.588500    -0.892416 O          1 UNL1 0.000
    15 C      -6.216127     6.082197    -2.175701 C          1 UNL1 0.000
    16 C      -1.750796     0.611792    -0.750866 C          1 UNL1 0.000
    17 C      -1.031721     0.698117    -1.948511 C          1 UNL1 0.000
    18 C       0.354581     0.667928    -1.913919 C          1 UNL1 0.000
    19 C       1.044733     0.586904    -0.708026 C          1 UNL1 0.000
    20 C       0.346177     0.531588     0.506434 C          1 UNL1 0.000
    21 C      -1.057590     0.526464     0.470848 C          1 UNL1 0.000
    22 F       1.042849     0.714159    -3.062036 F          1 UNL1 0.000
    23 H      -6.885658     3.268335    -1.735931 H          1 UNL1 0.000
    24 H      -5.711164     1.134072    -1.778901 H          1 UNL1 0.000
    25 H      -2.226747     3.061555    -0.085486 H          1 UNL1 0.000
    26 H      -3.389201     5.201688    -0.167740 H          1 UNL1 0.000
    27 H      -5.699121    -0.028883     0.207228 H          1 UNL1 0.000
    28 H      -6.805788    -2.208503     0.135004 H          1 UNL1 0.000
    29 H      -5.599222    -4.212608    -0.690877 H          1 UNL1 0.000
    30 H      -3.249664    -3.997830    -1.459328 H          1 UNL1 0.000
    31 H      -2.155446    -1.826200    -1.500254 H          1 UNL1 0.000
    32 H      -5.329286     6.280922    -2.786837 H          1 UNL1 0.000
    33 H      -6.743376     7.029358    -2.024798 H          1 UNL1 0.000
    34 H      -6.897296     5.402672    -2.697120 H          1 UNL1 0.000
    35 H      -1.548046     0.759362    -2.900981 H          1 UNL1 0.000
    36 H       2.131315     0.580728    -0.726253 H          1 UNL1 0.000
    37 H      -1.626949     0.469325     1.397446 H          1 UNL1 0.000
    38 C       1.070224     0.500438     1.780360 C          1 UNL1 0.000
    39 C       1.116680     1.637162     2.603315 C          1 UNL1 0.000
    40 C       1.831547     1.623662     3.805499 C          1 UNL1 0.000
    41 C       2.507432     0.467771     4.205346 C          1 UNL1 0.000
    42 C       2.462800    -0.672716     3.398320 C          1 UNL1 0.000
    43 C       1.750784    -0.654205     2.194258 C          1 UNL1 0.000
    44 C       3.245928     0.453168     5.433798 C          1 UNL1 0.000
    45 N       3.846298     0.441891     6.427563 N          1 UNL1 0.000
    46 H       0.603714     2.549655     2.303018 H          1 UNL1 0.000
    47 H       1.859038     2.521496     4.420495 H          1 UNL1 0.000
    48 H       2.981960    -1.581645     3.696932 H          1 UNL1 0.000
    49 H       1.727348    -1.551371     1.577825 H          1 UNL1 0.000
@<TRIPOS>BOND
     1      1      2   2
     2      2      3   1
     3      3      4   2
     4      4      5   1
     5      5      6   2
     6      6      1   1
     7      4      7   1
     8      7      8   1
     9      8      9   2
    10      9     10   1
    11     10     11   2
    12     11     12   1
    13     12     13   2
    14     13      8   1
    15     14     15   1
    16      1     14   1
    17     16     17   2
    18     17     18   1
    19     18     19   2
    20     19     20   1
    21     20     21   2
    22     21     16   1
    23     18     22   1
    24      7     16   1
    25      2     23   1
    26      3     24   1
    27      5     25   1
    28      6     26   1
    29      9     27   1
    30     10     28   1
    31     11     29   1
    32     12     30   1
    33     13     31   1
    34     15     32   1
    35     15     33   1
    36     15     34   1
    37     17     35   1
    38     19     36   1
    39     21     37   1
    40     38     39   2
    41     39     40   1
    42     40     41   2
    43     41     42   1
    44     42     43   2
    45     43     38   1
    46     44     45   3
    47     41     44   1
    48     39     46   1
    49     40     47   1
    50     42     48   1
    51     43     49   1
    52     20     38   1
