# Produced with molli package
@<TRIPOS>MOLECULE
E_10_O
47 50 0 0 0
SMALL
USER_CHARGES

@<TRIPOS>ATOM
     1 C      -5.316364     4.296589    -0.561256 C          1 UNL1 0.000
     2 C      -5.894485     3.157830    -0.011772 C          1 UNL1 0.000
     3 C      -5.201088     1.942699    -0.029817 C          1 UNL1 0.000
     4 C      -3.916158     1.841721    -0.594847 C          1 UNL1 0.000
     5 C      -3.326600     3.026770    -1.074919 C          1 UNL1 0.000
     6 C      -4.018744     4.243461    -1.060044 C          1 UNL1 0.000
     7 N      -3.224978     0.576492    -0.668410 N          1 UNL1 0.000
     8 C      -3.913958    -0.684219    -0.833215 C          1 UNL1 0.000
     9 C      -5.097626    -0.788513    -1.584355 C          1 UNL1 0.000
    10 C      -5.748877    -2.016544    -1.742138 C          1 UNL1 0.000
    11 C      -5.221638    -3.167988    -1.163841 C          1 UNL1 0.000
    12 C      -4.041318    -3.094565    -0.431364 C          1 UNL1 0.000
    13 C      -3.393899    -1.866327    -0.270770 C          1 UNL1 0.000
    14 O      -6.048852     5.450991    -0.523386 O          1 UNL1 0.000
    15 C      -6.184806     6.042948    -1.815170 C          1 UNL1 0.000
    16 C      -1.788259     0.557452    -0.697877 C          1 UNL1 0.000
    17 C      -1.113374     0.339797    -1.903036 C          1 UNL1 0.000
    18 C       0.272895     0.267153    -1.910280 C          1 UNL1 0.000
    19 C       1.001656     0.360479    -0.727898 C          1 UNL1 0.000
    20 C       0.347482     0.553190     0.496355 C          1 UNL1 0.000
    21 C      -1.052200     0.692693     0.492486 C          1 UNL1 0.000
    22 F       0.918067     0.081833    -3.066853 F          1 UNL1 0.000
    23 H      -6.889878     3.208704     0.420352 H          1 UNL1 0.000
    24 H      -5.677288     1.071792     0.413947 H          1 UNL1 0.000
    25 H      -2.322023     3.019934    -1.489358 H          1 UNL1 0.000
    26 H      -3.526138     5.137035    -1.430255 H          1 UNL1 0.000
    27 H      -5.516668     0.085641    -2.076144 H          1 UNL1 0.000
    28 H      -6.665142    -2.071852    -2.324142 H          1 UNL1 0.000
    29 H      -5.726736    -4.122176    -1.288162 H          1 UNL1 0.000
    30 H      -3.621552    -3.990206     0.018986 H          1 UNL1 0.000
    31 H      -2.481605    -1.841604     0.319349 H          1 UNL1 0.000
    32 H      -5.247487     6.501463    -2.145286 H          1 UNL1 0.000
    33 H      -6.935623     6.835609    -1.742141 H          1 UNL1 0.000
    34 H      -6.537739     5.312476    -2.552495 H          1 UNL1 0.000
    35 H      -1.661344     0.234226    -2.834207 H          1 UNL1 0.000
    36 H       2.084574     0.278468    -0.775044 H          1 UNL1 0.000
    37 H      -1.580388     0.850283     1.431051 H          1 UNL1 0.000
    38 C       1.093685     0.549314     1.758779 C          1 UNL1 0.000
    39 N       1.010765     1.674094     2.506025 N          1 UNL1 0.000
    40 C       1.685853     1.689755     3.677993 C          1 UNL1 0.000
    41 C       2.433067     0.625119     4.154470 C          1 UNL1 0.000
    42 C       2.498149    -0.527309     3.384089 C          1 UNL1 0.000
    43 C       1.823751    -0.568076     2.166570 C          1 UNL1 0.000
    44 H       1.606060     2.613327     4.243664 H          1 UNL1 0.000
    45 H       2.949316     0.692567     5.105901 H          1 UNL1 0.000
    46 H       3.064099    -1.389135     3.725883 H          1 UNL1 0.000
    47 H       1.854101    -1.465053     1.556786 H          1 UNL1 0.000
@<TRIPOS>BOND
     1      1      2   2
     2      2      3   1
     3      3      4   2
     4      4      5   1
     5      5      6   2
     6      6      1   1
     7      4      7   1
     8      7      8   1
     9      8      9   2
    10      9     10   1
    11     10     11   2
    12     11     12   1
    13     12     13   2
    14     13      8   1
    15     14     15   1
    16      1     14   1
    17     16     17   2
    18     17     18   1
    19     18     19   2
    20     19     20   1
    21     20     21   2
    22     21     16   1
    23     18     22   1
    24      7     16   1
    25      2     23   1
    26      3     24   1
    27      5     25   1
    28      6     26   1
    29      9     27   1
    30     10     28   1
    31     11     29   1
    32     12     30   1
    33     13     31   1
    34     15     32   1
    35     15     33   1
    36     15     34   1
    37     17     35   1
    38     19     36   1
    39     21     37   1
    40     38     39   2
    41     39     40   1
    42     40     41   2
    43     41     42   1
    44     42     43   2
    45     43     38   1
    46     40     44   1
    47     41     45   1
    48     42     46   1
    49     43     47   1
    50     20     38   1
