# Produced with molli package
@<TRIPOS>MOLECULE
E_10_R
49 52 0 0 0
SMALL
USER_CHARGES

@<TRIPOS>ATOM
     1 C      -5.256922     4.266064    -0.632397 C          1 UNL1 0.000
     2 C      -5.829796     3.149690    -0.033372 C          1 UNL1 0.000
     3 C      -5.139230     1.932755    -0.016024 C          1 UNL1 0.000
     4 C      -3.863395     1.807955    -0.596080 C          1 UNL1 0.000
     5 C      -3.276842     2.973923    -1.124579 C          1 UNL1 0.000
     6 C      -3.965737     4.192106    -1.144547 C          1 UNL1 0.000
     7 N      -3.177281     0.537952    -0.637898 N          1 UNL1 0.000
     8 C      -3.868419    -0.723895    -0.797563 C          1 UNL1 0.000
     9 C      -5.077846    -0.824830    -1.507478 C          1 UNL1 0.000
    10 C      -5.730581    -2.053334    -1.658933 C          1 UNL1 0.000
    11 C      -5.178042    -3.211082    -1.118973 C          1 UNL1 0.000
    12 C      -3.971592    -3.143034    -0.430683 C          1 UNL1 0.000
    13 C      -3.324510    -1.913698    -0.273640 C          1 UNL1 0.000
    14 O      -5.987194     5.422444    -0.631004 O          1 UNL1 0.000
    15 C      -6.138714     5.962511    -1.943870 C          1 UNL1 0.000
    16 C      -1.740445     0.519710    -0.659666 C          1 UNL1 0.000
    17 C      -1.059635     0.314161    -1.865297 C          1 UNL1 0.000
    18 C       0.324799     0.250232    -1.864996 C          1 UNL1 0.000
    19 C       1.048930     0.338301    -0.680808 C          1 UNL1 0.000
    20 C       0.390686     0.514933     0.546912 C          1 UNL1 0.000
    21 C      -1.009505     0.647150     0.535053 C          1 UNL1 0.000
    22 F       0.978318     0.079700    -3.021590 F          1 UNL1 0.000
    23 H      -6.819704     3.218998     0.408808 H          1 UNL1 0.000
    24 H      -5.611030     1.079075     0.464533 H          1 UNL1 0.000
    25 H      -2.278732     2.950200    -1.553203 H          1 UNL1 0.000
    26 H      -3.476714     5.070517    -1.553811 H          1 UNL1 0.000
    27 H      -5.519926     0.051723    -1.974066 H          1 UNL1 0.000
    28 H      -6.667984    -2.103664    -2.206856 H          1 UNL1 0.000
    29 H      -5.683650    -4.165535    -1.239477 H          1 UNL1 0.000
    30 H      -3.530808    -4.044021    -0.012067 H          1 UNL1 0.000
    31 H      -2.390951    -1.897272     0.281991 H          1 UNL1 0.000
    32 H      -5.205296     6.406858    -2.303265 H          1 UNL1 0.000
    33 H      -6.888510     6.757884    -1.893815 H          1 UNL1 0.000
    34 H      -6.500253     5.203319    -2.647278 H          1 UNL1 0.000
    35 H      -1.604186     0.214179    -2.798679 H          1 UNL1 0.000
    36 H       2.132143     0.266326    -0.729796 H          1 UNL1 0.000
    37 H      -1.546508     0.794980     1.471421 H          1 UNL1 0.000
    38 C       1.137763     0.507091     1.810378 C          1 UNL1 0.000
    39 N       0.929702     1.560275     2.640061 N          1 UNL1 0.000
    40 C       1.614646     1.585869     3.813040 C          1 UNL1 0.000
    41 C       2.494733     0.587442     4.197948 C          1 UNL1 0.000
    42 C       2.691900    -0.503367     3.352941 C          1 UNL1 0.000
    43 C       2.002764    -0.540325     2.141398 C          1 UNL1 0.000
    44 N       3.200349     0.687050     5.465347 N          1 UNL1 0.000
    45 O       4.142445    -0.093878     5.658875 O          1 UNL1 0.000
    46 O       2.817384     1.544736     6.272397 O          1 UNL1 0.000
    47 H       1.420525     2.461455     4.428030 H          1 UNL1 0.000
    48 H       3.361782    -1.317912     3.617768 H          1 UNL1 0.000
    49 H       2.130786    -1.386533     1.471667 H          1 UNL1 0.000
@<TRIPOS>BOND
     1      1      2   2
     2      2      3   1
     3      3      4   2
     4      4      5   1
     5      5      6   2
     6      6      1   1
     7      4      7   1
     8      7      8   1
     9      8      9   2
    10      9     10   1
    11     10     11   2
    12     11     12   1
    13     12     13   2
    14     13      8   1
    15     14     15   1
    16      1     14   1
    17     16     17   2
    18     17     18   1
    19     18     19   2
    20     19     20   1
    21     20     21   2
    22     21     16   1
    23     18     22   1
    24      7     16   1
    25      2     23   1
    26      3     24   1
    27      5     25   1
    28      6     26   1
    29      9     27   1
    30     10     28   1
    31     11     29   1
    32     12     30   1
    33     13     31   1
    34     15     32   1
    35     15     33   1
    36     15     34   1
    37     17     35   1
    38     19     36   1
    39     21     37   1
    40     38     39   2
    41     39     40   1
    42     40     41   2
    43     41     42   1
    44     42     43   2
    45     43     38   1
    46     44     45   2
    47     44     46   1
    48     41     44   1
    49     40     47   1
    50     42     48   1
    51     43     49   1
    52     20     38   1
