# Produced with molli package
@<TRIPOS>MOLECULE
E_10_T
51 54 0 0 0
SMALL
USER_CHARGES

@<TRIPOS>ATOM
     1 C      -5.146525     4.347602    -1.065814 C          1 UNL1 0.000
     2 C      -5.696090     3.222819    -1.676345 C          1 UNL1 0.000
     3 C      -5.042313     1.986283    -1.585776 C          1 UNL1 0.000
     4 C      -3.840381     1.846361    -0.869665 C          1 UNL1 0.000
     5 C      -3.307324     2.999255    -0.263534 C          1 UNL1 0.000
     6 C      -3.961921     4.231355    -0.346452 C          1 UNL1 0.000
     7 N      -3.159650     0.576456    -0.772534 N          1 UNL1 0.000
     8 C      -3.857404    -0.684871    -0.687264 C          1 UNL1 0.000
     9 C      -5.116233    -0.788577    -0.068293 C          1 UNL1 0.000
    10 C      -5.794425    -2.010403     0.000341 C          1 UNL1 0.000
    11 C      -5.220963    -3.159090    -0.536581 C          1 UNL1 0.000
    12 C      -3.966243    -3.088985    -1.132991 C          1 UNL1 0.000
    13 C      -3.290355    -1.866475    -1.202201 C          1 UNL1 0.000
    14 O      -5.728926     5.584618    -1.069544 O          1 UNL1 0.000
    15 C      -6.212094     5.986849    -2.347957 C          1 UNL1 0.000
    16 C      -1.723314     0.578142    -0.767651 C          1 UNL1 0.000
    17 C      -1.015421     0.771431    -1.959043 C          1 UNL1 0.000
    18 C       0.372064     0.791239    -1.934570 C          1 UNL1 0.000
    19 C       1.073260     0.661369    -0.740027 C          1 UNL1 0.000
    20 C       0.383938     0.498107     0.469072 C          1 UNL1 0.000
    21 C      -1.017901     0.427100     0.439187 C          1 UNL1 0.000
    22 F       1.048455     0.955964    -3.078841 F          1 UNL1 0.000
    23 H      -6.639127     3.277384    -2.210236 H          1 UNL1 0.000
    24 H      -5.480601     1.130502    -2.093884 H          1 UNL1 0.000
    25 H      -2.384142     2.950870     0.307065 H          1 UNL1 0.000
    26 H      -3.539225     5.102513     0.146747 H          1 UNL1 0.000
    27 H      -5.578810     0.083147     0.388096 H          1 UNL1 0.000
    28 H      -6.768634    -2.062188     0.479526 H          1 UNL1 0.000
    29 H      -5.747576    -4.108352    -0.484569 H          1 UNL1 0.000
    30 H      -3.509749    -3.983362    -1.549220 H          1 UNL1 0.000
    31 H      -2.318016    -1.849586    -1.687134 H          1 UNL1 0.000
    32 H      -5.449122     5.850842    -3.122614 H          1 UNL1 0.000
    33 H      -6.447039     7.054288    -2.292674 H          1 UNL1 0.000
    34 H      -7.132990     5.457253    -2.609166 H          1 UNL1 0.000
    35 H      -1.539382     0.894939    -2.901162 H          1 UNL1 0.000
    36 H       2.158498     0.715087    -0.757751 H          1 UNL1 0.000
    37 H      -1.574848     0.298300     1.365920 H          1 UNL1 0.000
    38 C       1.111398     0.474020     1.739636 C          1 UNL1 0.000
    39 C       1.195496     1.634770     2.523676 C          1 UNL1 0.000
    40 C       1.917278     1.643147     3.719884 C          1 UNL1 0.000
    41 C       2.569506     0.487430     4.158299 C          1 UNL1 0.000
    42 C       2.478684    -0.677778     3.387405 C          1 UNL1 0.000
    43 C       1.758309    -0.683676     2.188360 C          1 UNL1 0.000
    44 C       3.356791     0.485400     5.434984 C          1 UNL1 0.000
    45 H       0.705525     2.549840     2.196449 H          1 UNL1 0.000
    46 H       1.969900     2.561698     4.299819 H          1 UNL1 0.000
    47 H       2.974276    -1.589307     3.714167 H          1 UNL1 0.000
    48 H       1.706899    -1.599739     1.603983 H          1 UNL1 0.000
    49 H       4.394046     0.195842     5.237792 H          1 UNL1 0.000
    50 H       2.915324    -0.215897     6.149885 H          1 UNL1 0.000
    51 H       3.370807     1.477049     5.899578 H          1 UNL1 0.000
@<TRIPOS>BOND
     1      1      2   2
     2      2      3   1
     3      3      4   2
     4      4      5   1
     5      5      6   2
     6      6      1   1
     7      4      7   1
     8      7      8   1
     9      8      9   2
    10      9     10   1
    11     10     11   2
    12     11     12   1
    13     12     13   2
    14     13      8   1
    15     14     15   1
    16      1     14   1
    17     16     17   2
    18     17     18   1
    19     18     19   2
    20     19     20   1
    21     20     21   2
    22     21     16   1
    23     18     22   1
    24      7     16   1
    25      2     23   1
    26      3     24   1
    27      5     25   1
    28      6     26   1
    29      9     27   1
    30     10     28   1
    31     11     29   1
    32     12     30   1
    33     13     31   1
    34     15     32   1
    35     15     33   1
    36     15     34   1
    37     17     35   1
    38     19     36   1
    39     21     37   1
    40     38     39   2
    41     39     40   1
    42     40     41   2
    43     41     42   1
    44     42     43   2
    45     43     38   1
    46     41     44   1
    47     39     45   1
    48     40     46   1
    49     42     47   1
    50     43     48   1
    51     44     49   1
    52     44     50   1
    53     44     51   1
    54     20     38   1
