# Produced with molli package
@<TRIPOS>MOLECULE
E_10_N
45 48 0 0 0
SMALL
USER_CHARGES

@<TRIPOS>ATOM
     1 C      -5.122410     4.334110    -1.069344 C          1 UNL1 0.000
     2 C      -5.688044     3.205427    -1.659808 C          1 UNL1 0.000
     3 C      -5.057977     1.957324    -1.544142 C          1 UNL1 0.000
     4 C      -3.857253     1.811109    -0.830166 C          1 UNL1 0.000
     5 C      -3.307628     2.962474    -0.238359 C          1 UNL1 0.000
     6 C      -3.939497     4.203858    -0.346355 C          1 UNL1 0.000
     7 N      -3.187757     0.536927    -0.727030 N          1 UNL1 0.000
     8 C      -3.895375    -0.709949    -0.567773 C          1 UNL1 0.000
     9 C      -5.132155    -0.775213     0.098098 C          1 UNL1 0.000
    10 C      -5.813056    -1.988181     0.246616 C          1 UNL1 0.000
    11 C      -5.266153    -3.163473    -0.260269 C          1 UNL1 0.000
    12 C      -4.036090    -3.128414    -0.909376 C          1 UNL1 0.000
    13 C      -3.356522    -1.915270    -1.057248 C          1 UNL1 0.000
    14 O      -5.637344     5.599653    -1.107445 O          1 UNL1 0.000
    15 C      -6.522207     5.879798    -2.185031 C          1 UNL1 0.000
    16 C      -1.751002     0.530070    -0.741105 C          1 UNL1 0.000
    17 C      -1.055885     0.819045    -1.920840 C          1 UNL1 0.000
    18 C       0.332444     0.874799    -1.905100 C          1 UNL1 0.000
    19 C       1.046401     0.685193    -0.726103 C          1 UNL1 0.000
    20 C       0.362810     0.408569     0.459900 C          1 UNL1 0.000
    21 C      -1.034360     0.302110     0.446010 C          1 UNL1 0.000
    22 F       0.993617     1.136651    -3.038722 F          1 UNL1 0.000
    23 H      -6.620829     3.259732    -2.211031 H          1 UNL1 0.000
    24 H      -5.508079     1.099495    -2.038434 H          1 UNL1 0.000
    25 H      -2.386007     2.906975     0.334747 H          1 UNL1 0.000
    26 H      -3.497090     5.075617     0.129137 H          1 UNL1 0.000
    27 H      -5.572650     0.119512     0.531173 H          1 UNL1 0.000
    28 H      -6.768319    -2.012437     0.764673 H          1 UNL1 0.000
    29 H      -5.795253    -4.105902    -0.145432 H          1 UNL1 0.000
    30 H      -3.602660    -4.043244    -1.305413 H          1 UNL1 0.000
    31 H      -2.404847    -1.922338    -1.582462 H          1 UNL1 0.000
    32 H      -6.077977     5.603863    -3.147625 H          1 UNL1 0.000
    33 H      -6.699158     6.959683    -2.197486 H          1 UNL1 0.000
    34 H      -7.487186     5.385096    -2.038790 H          1 UNL1 0.000
    35 H      -1.589610     0.999209    -2.848881 H          1 UNL1 0.000
    36 H       2.129562     0.764736    -0.747538 H          1 UNL1 0.000
    37 H      -1.581718     0.111654     1.366574 H          1 UNL1 0.000
    38 C       1.091764     0.317971     1.714633 C          1 UNL1 0.000
    39 C       1.048351    -0.809576     2.508619 C          1 UNL1 0.000
    40 S       1.976372    -0.634377     3.937922 S          1 UNL1 0.000
    41 C       2.437733     0.955895     3.511090 C          1 UNL1 0.000
    42 C       1.904696     1.340161     2.300400 C          1 UNL1 0.000
    43 H       0.520780    -1.736499     2.325860 H          1 UNL1 0.000
    44 H       3.073837     1.534171     4.167171 H          1 UNL1 0.000
    45 H       2.074439     2.317118     1.863674 H          1 UNL1 0.000
@<TRIPOS>BOND
     1      1      2   2
     2      2      3   1
     3      3      4   2
     4      4      5   1
     5      5      6   2
     6      6      1   1
     7      4      7   1
     8      7      8   1
     9      8      9   2
    10      9     10   1
    11     10     11   2
    12     11     12   1
    13     12     13   2
    14     13      8   1
    15     14     15   1
    16      1     14   1
    17     16     17   2
    18     17     18   1
    19     18     19   2
    20     19     20   1
    21     20     21   2
    22     21     16   1
    23     18     22   1
    24      7     16   1
    25      2     23   1
    26      3     24   1
    27      5     25   1
    28      6     26   1
    29      9     27   1
    30     10     28   1
    31     11     29   1
    32     12     30   1
    33     13     31   1
    34     15     32   1
    35     15     33   1
    36     15     34   1
    37     17     35   1
    38     19     36   1
    39     21     37   1
    40     38     39   2
    41     39     40   1
    42     40     41   1
    43     41     42   2
    44     42     38   1
    45     39     43   1
    46     41     44   1
    47     42     45   1
    48     20     38   1
