# Produced with molli package
@<TRIPOS>MOLECULE
E_1_N
45 48 0 0 0
SMALL
USER_CHARGES

@<TRIPOS>ATOM
     1 C      -5.888487     4.313834     0.311918 C          1 UNL1 0.000
     2 C      -6.476881     3.198874    -0.280869 C          1 UNL1 0.000
     3 C      -5.840690     1.949272    -0.218536 C          1 UNL1 0.000
     4 C      -4.620222     1.781791     0.457459 C          1 UNL1 0.000
     5 C      -4.045665     2.927175     1.041944 C          1 UNL1 0.000
     6 C      -4.678135     4.172261     0.981877 C          1 UNL1 0.000
     7 N      -3.953039     0.502059     0.536512 N          1 UNL1 0.000
     8 C      -4.646067    -0.765878     0.613125 C          1 UNL1 0.000
     9 C      -5.939878    -0.879584     1.150766 C          1 UNL1 0.000
    10 C      -6.600035    -2.113399     1.208261 C          1 UNL1 0.000
    11 C      -5.970277    -3.267869     0.752848 C          1 UNL1 0.000
    12 C      -4.678967    -3.191227     0.244863 C          1 UNL1 0.000
    13 C      -4.026767    -1.955958     0.176802 C          1 UNL1 0.000
    14 O      -6.432039     5.567830     0.335991 O          1 UNL1 0.000
    15 C      -7.126020     5.940429    -0.849426 C          1 UNL1 0.000
    16 C      -2.515389     0.496822     0.543973 C          1 UNL1 0.000
    17 C      -1.803528     0.729426    -0.642506 C          1 UNL1 0.000
    18 C      -0.407890     0.715833    -0.639405 C          1 UNL1 0.000
    19 C       0.287111     0.493079     0.554585 C          1 UNL1 0.000
    20 C      -0.417128     0.267422     1.742406 C          1 UNL1 0.000
    21 C      -1.813081     0.259650     1.735338 C          1 UNL1 0.000
    22 H      -7.436470     3.267018    -0.782361 H          1 UNL1 0.000
    23 H      -6.311197     1.106677    -0.719402 H          1 UNL1 0.000
    24 H      -3.100555     2.864480     1.574607 H          1 UNL1 0.000
    25 H      -4.216015     5.034870     1.454888 H          1 UNL1 0.000
    26 H      -6.449994    -0.009231     1.554833 H          1 UNL1 0.000
    27 H      -7.604990    -2.170243     1.618400 H          1 UNL1 0.000
    28 H      -6.480814    -4.225964     0.801618 H          1 UNL1 0.000
    29 H      -4.173411    -4.088828    -0.101879 H          1 UNL1 0.000
    30 H      -3.021910    -1.938796    -0.237669 H          1 UNL1 0.000
    31 H      -6.515878     5.757903    -1.740885 H          1 UNL1 0.000
    32 H      -7.323431     7.015518    -0.793661 H          1 UNL1 0.000
    33 H      -8.090603     5.429442    -0.921496 H          1 UNL1 0.000
    34 H      -2.342052     0.897955    -1.571677 H          1 UNL1 0.000
    35 H       0.130848     0.872695    -1.570885 H          1 UNL1 0.000
    36 H       0.114350     0.104843     2.677004 H          1 UNL1 0.000
    37 H      -2.359482     0.091687     2.660157 H          1 UNL1 0.000
    38 C       1.737311     0.482178     0.559775 C          1 UNL1 0.000
    39 C       2.463975     1.654626     0.502344 C          1 UNL1 0.000
    40 S       4.152296     1.370690     0.523768 S          1 UNL1 0.000
    41 C       3.922292    -0.322476     0.609928 C          1 UNL1 0.000
    42 C       2.587608    -0.663421     0.627255 C          1 UNL1 0.000
    43 H       2.089911     2.668645     0.452803 H          1 UNL1 0.000
    44 H       4.775786    -0.985536     0.644116 H          1 UNL1 0.000
    45 H       2.236345    -1.687086     0.677617 H          1 UNL1 0.000
@<TRIPOS>BOND
     1      1      2   2
     2      2      3   1
     3      3      4   2
     4      4      5   1
     5      5      6   2
     6      6      1   1
     7      4      7   1
     8      7      8   1
     9      8      9   2
    10      9     10   1
    11     10     11   2
    12     11     12   1
    13     12     13   2
    14     13      8   1
    15     14     15   1
    16      1     14   1
    17     16     17   2
    18     17     18   1
    19     18     19   2
    20     19     20   1
    21     20     21   2
    22     21     16   1
    23      7     16   1
    24      2     22   1
    25      3     23   1
    26      5     24   1
    27      6     25   1
    28      9     26   1
    29     10     27   1
    30     11     28   1
    31     12     29   1
    32     13     30   1
    33     15     31   1
    34     15     32   1
    35     15     33   1
    36     17     34   1
    37     18     35   1
    38     20     36   1
    39     21     37   1
    40     38     39   2
    41     39     40   1
    42     40     41   1
    43     41     42   2
    44     42     38   1
    45     39     43   1
    46     41     44   1
    47     42     45   1
    48     19     38   1
