# Produced with molli package
@<TRIPOS>MOLECULE
E_1_K
50 53 0 0 0
SMALL
USER_CHARGES

@<TRIPOS>ATOM
     1 C      -5.926898     4.309978     0.604689 C          1 UNL1 0.000
     2 C      -6.485074     3.194889     1.220711 C          1 UNL1 0.000
     3 C      -5.813968     1.967102     1.188204 C          1 UNL1 0.000
     4 C      -4.573209     1.832876     0.540814 C          1 UNL1 0.000
     5 C      -4.005988     2.993845    -0.023223 C          1 UNL1 0.000
     6 C      -4.672223     4.222884     0.011482 C          1 UNL1 0.000
     7 N      -3.881887     0.565842     0.471615 N          1 UNL1 0.000
     8 C      -4.565199    -0.706646     0.400309 C          1 UNL1 0.000
     9 C      -5.820728    -0.843662    -0.216645 C          1 UNL1 0.000
    10 C      -6.474722    -2.080119    -0.265184 C          1 UNL1 0.000
    11 C      -5.876807    -3.211073     0.283690 C          1 UNL1 0.000
    12 C      -4.623278    -3.108848     0.876830 C          1 UNL1 0.000
    13 C      -3.975951    -1.871109     0.933237 C          1 UNL1 0.000
    14 O      -6.623134     5.485294     0.671055 O          1 UNL1 0.000
    15 C      -6.920878     5.993977    -0.629416 C          1 UNL1 0.000
    16 C      -2.444706     0.570485     0.466815 C          1 UNL1 0.000
    17 C      -1.736878     0.170174    -0.674393 C          1 UNL1 0.000
    18 C      -0.339681     0.170180    -0.674579 C          1 UNL1 0.000
    19 C       0.380041     0.551377     0.468949 C          1 UNL1 0.000
    20 C      -0.336693     0.948343     1.609136 C          1 UNL1 0.000
    21 C      -1.733704     0.967575     1.606791 C          1 UNL1 0.000
    22 H      -7.445990     3.275805     1.720904 H          1 UNL1 0.000
    23 H      -6.268433     1.117238     1.691061 H          1 UNL1 0.000
    24 H      -3.036507     2.952567    -0.513734 H          1 UNL1 0.000
    25 H      -4.196149     5.099330    -0.416835 H          1 UNL1 0.000
    26 H      -6.301871     0.011158    -0.684714 H          1 UNL1 0.000
    27 H      -7.450387    -2.157713    -0.737865 H          1 UNL1 0.000
    28 H      -6.384249    -4.171316     0.244921 H          1 UNL1 0.000
    29 H      -4.146068    -3.988207     1.301458 H          1 UNL1 0.000
    30 H      -3.004289    -1.825415     1.419127 H          1 UNL1 0.000
    31 H      -6.022134     6.368995    -1.129310 H          1 UNL1 0.000
    32 H      -7.611015     6.834538    -0.509688 H          1 UNL1 0.000
    33 H      -7.416297     5.235876    -1.246979 H          1 UNL1 0.000
    34 H      -2.277375    -0.124305    -1.570692 H          1 UNL1 0.000
    35 H       0.186128    -0.123954    -1.580749 H          1 UNL1 0.000
    36 H       0.191119     1.231569     2.517648 H          1 UNL1 0.000
    37 H      -2.271552     1.264968     2.503761 H          1 UNL1 0.000
    38 C       1.847862     0.527846     0.475972 C          1 UNL1 0.000
    39 C       2.584957     1.709057     0.668960 C          1 UNL1 0.000
    40 C       3.982758     1.690759     0.682933 C          1 UNL1 0.000
    41 C       4.654889     0.476857     0.502756 C          1 UNL1 0.000
    42 C       3.943182    -0.711654     0.307936 C          1 UNL1 0.000
    43 C       2.545833    -0.679159     0.295115 C          1 UNL1 0.000
    44 N       6.119892     0.450013     0.519888 N          1 UNL1 0.000
    45 O       6.707425     1.429096     1.000729 O          1 UNL1 0.000
    46 O       6.681890    -0.551049     0.052288 O          1 UNL1 0.000
    47 H       2.066580     2.657949     0.801392 H          1 UNL1 0.000
    48 H       4.525430     2.622190     0.829804 H          1 UNL1 0.000
    49 H       4.454394    -1.662495     0.172713 H          1 UNL1 0.000
    50 H       1.996210    -1.609215     0.154917 H          1 UNL1 0.000
@<TRIPOS>BOND
     1      1      2   2
     2      2      3   1
     3      3      4   2
     4      4      5   1
     5      5      6   2
     6      6      1   1
     7      4      7   1
     8      7      8   1
     9      8      9   2
    10      9     10   1
    11     10     11   2
    12     11     12   1
    13     12     13   2
    14     13      8   1
    15     14     15   1
    16      1     14   1
    17     16     17   2
    18     17     18   1
    19     18     19   2
    20     19     20   1
    21     20     21   2
    22     21     16   1
    23      7     16   1
    24      2     22   1
    25      3     23   1
    26      5     24   1
    27      6     25   1
    28      9     26   1
    29     10     27   1
    30     11     28   1
    31     12     29   1
    32     13     30   1
    33     15     31   1
    34     15     32   1
    35     15     33   1
    36     17     34   1
    37     18     35   1
    38     20     36   1
    39     21     37   1
    40     38     39   2
    41     39     40   1
    42     40     41   2
    43     41     42   1
    44     42     43   2
    45     43     38   1
    46     44     45   2
    47     44     46   1
    48     41     44   1
    49     39     47   1
    50     40     48   1
    51     42     49   1
    52     43     50   1
    53     19     38   1
