# Produced with molli package
@<TRIPOS>MOLECULE
E_1_M
49 52 0 0 0
SMALL
USER_CHARGES

@<TRIPOS>ATOM
     1 C      -6.052037     4.224930     0.395744 C          1 UNL1 0.000
     2 C      -6.655495     3.075005    -0.102364 C          1 UNL1 0.000
     3 C      -5.955172     1.859994    -0.102917 C          1 UNL1 0.000
     4 C      -4.666703     1.752744     0.450628 C          1 UNL1 0.000
     5 C      -4.072062     2.946474     0.913255 C          1 UNL1 0.000
     6 C      -4.758883     4.165606     0.896711 C          1 UNL1 0.000
     7 N      -3.961761     0.489246     0.545940 N          1 UNL1 0.000
     8 C      -4.608334    -0.805916     0.653848 C          1 UNL1 0.000
     9 C      -5.912690    -0.963869     1.153841 C          1 UNL1 0.000
    10 C      -6.534667    -2.218854     1.199673 C          1 UNL1 0.000
    11 C      -5.847578    -3.357824     0.793685 C          1 UNL1 0.000
    12 C      -4.535569    -3.244186     0.352150 C          1 UNL1 0.000
    13 C      -3.927626    -1.985858     0.281556 C          1 UNL1 0.000
    14 O      -6.723392     5.409497     0.514373 O          1 UNL1 0.000
    15 C      -7.094888     5.948626    -0.751537 C          1 UNL1 0.000
    16 C      -2.523039     0.522750     0.556568 C          1 UNL1 0.000
    17 C      -1.812896     0.689319    -0.639845 C          1 UNL1 0.000
    18 C      -0.416139     0.685035    -0.634660 C          1 UNL1 0.000
    19 C       0.296138     0.538824     0.565696 C          1 UNL1 0.000
    20 C      -0.420066     0.391854     1.762974 C          1 UNL1 0.000
    21 C      -1.817310     0.371739     1.758851 C          1 UNL1 0.000
    22 H      -7.678126     3.100120    -0.466135 H          1 UNL1 0.000
    23 H      -6.445352     0.993342    -0.538012 H          1 UNL1 0.000
    24 H      -3.068347     2.943947     1.329919 H          1 UNL1 0.000
    25 H      -4.285258     5.060234     1.290830 H          1 UNL1 0.000
    26 H      -6.470757    -0.113066     1.533998 H          1 UNL1 0.000
    27 H      -7.556390    -2.302723     1.561246 H          1 UNL1 0.000
    28 H      -6.328294    -4.331583     0.832672 H          1 UNL1 0.000
    29 H      -3.980028    -4.129977     0.055239 H          1 UNL1 0.000
    30 H      -2.904845    -1.946714    -0.084307 H          1 UNL1 0.000
    31 H      -6.204741     6.199333    -1.338081 H          1 UNL1 0.000
    32 H      -7.651103     6.873051    -0.567139 H          1 UNL1 0.000
    33 H      -7.748568     5.274687    -1.313602 H          1 UNL1 0.000
    34 H      -2.351730     0.794339    -1.578021 H          1 UNL1 0.000
    35 H       0.117507     0.790766    -1.577003 H          1 UNL1 0.000
    36 H       0.109130     0.286342     2.707851 H          1 UNL1 0.000
    37 H      -2.360800     0.251637     2.692842 H          1 UNL1 0.000
    38 C       1.760145     0.529662     0.562486 C          1 UNL1 0.000
    39 C       2.485114     1.721828     0.704910 C          1 UNL1 0.000
    40 C       3.883449     1.714262     0.682802 C          1 UNL1 0.000
    41 C       4.575497     0.510870     0.518085 C          1 UNL1 0.000
    42 C       3.863409    -0.683956     0.380821 C          1 UNL1 0.000
    43 C       2.465416    -0.672759     0.403465 C          1 UNL1 0.000
    44 C       6.009624     0.502366     0.485393 C          1 UNL1 0.000
    45 N       7.168452     0.495061     0.456272 N          1 UNL1 0.000
    46 H       1.958699     2.666733     0.829749 H          1 UNL1 0.000
    47 H       4.423594     2.652959     0.791426 H          1 UNL1 0.000
    48 H       4.387238    -1.629361     0.252332 H          1 UNL1 0.000
    49 H       1.922972    -1.610307     0.291849 H          1 UNL1 0.000
@<TRIPOS>BOND
     1      1      2   2
     2      2      3   1
     3      3      4   2
     4      4      5   1
     5      5      6   2
     6      6      1   1
     7      4      7   1
     8      7      8   1
     9      8      9   2
    10      9     10   1
    11     10     11   2
    12     11     12   1
    13     12     13   2
    14     13      8   1
    15     14     15   1
    16      1     14   1
    17     16     17   2
    18     17     18   1
    19     18     19   2
    20     19     20   1
    21     20     21   2
    22     21     16   1
    23      7     16   1
    24      2     22   1
    25      3     23   1
    26      5     24   1
    27      6     25   1
    28      9     26   1
    29     10     27   1
    30     11     28   1
    31     12     29   1
    32     13     30   1
    33     15     31   1
    34     15     32   1
    35     15     33   1
    36     17     34   1
    37     18     35   1
    38     20     36   1
    39     21     37   1
    40     38     39   2
    41     39     40   1
    42     40     41   2
    43     41     42   1
    44     42     43   2
    45     43     38   1
    46     44     45   3
    47     41     44   1
    48     39     46   1
    49     40     47   1
    50     42     48   1
    51     43     49   1
    52     19     38   1
