# Produced with molli package
@<TRIPOS>MOLECULE
E_1_S
53 56 0 0 0
SMALL
USER_CHARGES

@<TRIPOS>ATOM
     1 C      -5.980434     4.329551     0.633910 C          1 UNL1 0.000
     2 C      -6.569356     3.202141     1.195182 C          1 UNL1 0.000
     3 C      -5.897366     1.973094     1.169523 C          1 UNL1 0.000
     4 C      -4.630694     1.844275     0.572589 C          1 UNL1 0.000
     5 C      -4.034822     3.020869     0.071267 C          1 UNL1 0.000
     6 C      -4.696993     4.252320     0.106863 C          1 UNL1 0.000
     7 N      -3.936977     0.576239     0.497976 N          1 UNL1 0.000
     8 C      -4.601832    -0.708574     0.422977 C          1 UNL1 0.000
     9 C      -5.885255    -0.859761    -0.129918 C          1 UNL1 0.000
    10 C      -6.521392    -2.107063    -0.168383 C          1 UNL1 0.000
    11 C      -5.873834    -3.240222     0.314237 C          1 UNL1 0.000
    12 C      -4.587864    -3.129158     0.828819 C          1 UNL1 0.000
    13 C      -3.962166    -1.879611     0.882161 C          1 UNL1 0.000
    14 O      -6.669721     5.509129     0.694248 O          1 UNL1 0.000
    15 C      -6.933420     6.028082    -0.609896 C          1 UNL1 0.000
    16 C      -2.498969     0.592550     0.500039 C          1 UNL1 0.000
    17 C      -1.784985     0.350416    -0.681675 C          1 UNL1 0.000
    18 C      -0.387992     0.354013    -0.673289 C          1 UNL1 0.000
    19 C       0.320115     0.577892     0.517256 C          1 UNL1 0.000
    20 C      -0.400772     0.819044     1.696743 C          1 UNL1 0.000
    21 C      -1.797302     0.837301     1.688135 C          1 UNL1 0.000
    22 H      -7.553027     3.274135     1.650559 H          1 UNL1 0.000
    23 H      -6.376519     1.119013     1.640749 H          1 UNL1 0.000
    24 H      -3.040851     2.995826    -0.368140 H          1 UNL1 0.000
    25 H      -4.195303     5.138643    -0.268926 H          1 UNL1 0.000
    26 H      -6.408919    -0.008695    -0.556501 H          1 UNL1 0.000
    27 H      -7.522764    -2.190693    -0.582785 H          1 UNL1 0.000
    28 H      -6.366367    -4.208340     0.282094 H          1 UNL1 0.000
    29 H      -4.067099    -4.010035     1.195100 H          1 UNL1 0.000
    30 H      -2.962075    -1.835698     1.306040 H          1 UNL1 0.000
    31 H      -6.013330     6.312626    -1.130599 H          1 UNL1 0.000
    32 H      -7.541423     6.930427    -0.494504 H          1 UNL1 0.000
    33 H      -7.504560     5.308718    -1.207638 H          1 UNL1 0.000
    34 H      -2.321234     0.174329    -1.610801 H          1 UNL1 0.000
    35 H       0.148263     0.181346    -1.604163 H          1 UNL1 0.000
    36 H       0.125462     0.984650     2.634663 H          1 UNL1 0.000
    37 H      -2.342807     1.014424     2.611679 H          1 UNL1 0.000
    38 C       1.783939     0.550517     0.532717 C          1 UNL1 0.000
    39 C       2.524147     1.738572     0.528565 C          1 UNL1 0.000
    40 C       3.922244     1.706722     0.544378 C          1 UNL1 0.000
    41 C       4.611060     0.485558     0.571455 C          1 UNL1 0.000
    42 C       3.876651    -0.704234     0.588785 C          1 UNL1 0.000
    43 C       2.476252    -0.668580     0.561783 C          1 UNL1 0.000
    44 C       6.106881     0.527253     0.585604 C          1 UNL1 0.000
    45 C       6.905375    -0.752013     0.598295 C          1 UNL1 0.000
    46 O       6.680518     1.613263     0.616765 O          1 UNL1 0.000
    47 H       2.015107     2.700550     0.509194 H          1 UNL1 0.000
    48 H       4.471300     2.647141     0.537460 H          1 UNL1 0.000
    49 H       4.354208    -1.677489     0.627083 H          1 UNL1 0.000
    50 H       1.920525    -1.605217     0.572089 H          1 UNL1 0.000
    51 H       7.825601    -0.591954     0.027075 H          1 UNL1 0.000
    52 H       6.387018    -1.583919     0.121780 H          1 UNL1 0.000
    53 H       7.160446    -1.008358     1.629610 H          1 UNL1 0.000
@<TRIPOS>BOND
     1      1      2   2
     2      2      3   1
     3      3      4   2
     4      4      5   1
     5      5      6   2
     6      6      1   1
     7      4      7   1
     8      7      8   1
     9      8      9   2
    10      9     10   1
    11     10     11   2
    12     11     12   1
    13     12     13   2
    14     13      8   1
    15     14     15   1
    16      1     14   1
    17     16     17   2
    18     17     18   1
    19     18     19   2
    20     19     20   1
    21     20     21   2
    22     21     16   1
    23      7     16   1
    24      2     22   1
    25      3     23   1
    26      5     24   1
    27      6     25   1
    28      9     26   1
    29     10     27   1
    30     11     28   1
    31     12     29   1
    32     13     30   1
    33     15     31   1
    34     15     32   1
    35     15     33   1
    36     17     34   1
    37     18     35   1
    38     20     36   1
    39     21     37   1
    40     38     39   2
    41     39     40   1
    42     40     41   2
    43     41     42   1
    44     42     43   2
    45     43     38   1
    46     41     44   1
    47     44     45   1
    48     44     46   2
    49     39     47   1
    50     40     48   1
    51     42     49   1
    52     43     50   1
    53     45     51   1
    54     45     52   1
    55     45     53   1
    56     19     38   1
