# Produced with molli package
@<TRIPOS>MOLECULE
E_1_R
49 52 0 0 0
SMALL
USER_CHARGES

@<TRIPOS>ATOM
     1 C      -5.993792     4.318102     0.754542 C          1 UNL1 0.000
     2 C      -6.573562     3.178184     1.298552 C          1 UNL1 0.000
     3 C      -5.890728     1.957102     1.248718 C          1 UNL1 0.000
     4 C      -4.622664     1.851996     0.648080 C          1 UNL1 0.000
     5 C      -4.034412     3.041563     0.170457 C          1 UNL1 0.000
     6 C      -4.709664     4.264753     0.225951 C          1 UNL1 0.000
     7 N      -3.929123     0.587069     0.542744 N          1 UNL1 0.000
     8 C      -4.602754    -0.687136     0.411472 C          1 UNL1 0.000
     9 C      -5.862381    -0.806541    -0.201337 C          1 UNL1 0.000
    10 C      -6.508825    -2.044115    -0.303040 C          1 UNL1 0.000
    11 C      -5.896810    -3.196137     0.181566 C          1 UNL1 0.000
    12 C      -4.635978    -3.113401     0.761260 C          1 UNL1 0.000
    13 C      -3.997702    -1.874194     0.872947 C          1 UNL1 0.000
    14 O      -6.689304     5.493714     0.819417 O          1 UNL1 0.000
    15 C      -7.073652     5.925210    -0.487131 C          1 UNL1 0.000
    16 C      -2.492296     0.596130     0.531915 C          1 UNL1 0.000
    17 C      -1.791409     0.416529    -0.668863 C          1 UNL1 0.000
    18 C      -0.394338     0.422014    -0.676843 C          1 UNL1 0.000
    19 C       0.327569     0.575433     0.516725 C          1 UNL1 0.000
    20 C      -0.380948     0.756248     1.715414 C          1 UNL1 0.000
    21 C      -1.777697     0.779024     1.723057 C          1 UNL1 0.000
    22 H      -7.557281     3.233979     1.755514 H          1 UNL1 0.000
    23 H      -6.361744     1.087294     1.699365 H          1 UNL1 0.000
    24 H      -3.040685     3.032679    -0.270192 H          1 UNL1 0.000
    25 H      -4.224170     5.163828    -0.141328 H          1 UNL1 0.000
    26 H      -6.355217     0.063846    -0.626290 H          1 UNL1 0.000
    27 H      -7.489546    -2.105225    -0.767643 H          1 UNL1 0.000
    28 H      -6.397940    -4.157070     0.101306 H          1 UNL1 0.000
    29 H      -4.145620    -4.009449     1.132605 H          1 UNL1 0.000
    30 H      -3.019256    -1.849201     1.345457 H          1 UNL1 0.000
    31 H      -6.204003     6.180976    -1.101689 H          1 UNL1 0.000
    32 H      -7.682166     6.827758    -0.376945 H          1 UNL1 0.000
    33 H      -7.683676     5.164155    -0.987149 H          1 UNL1 0.000
    34 H      -2.338265     0.294179    -1.600493 H          1 UNL1 0.000
    35 H       0.132374     0.308051    -1.622069 H          1 UNL1 0.000
    36 H       0.156530     0.885262     2.652664 H          1 UNL1 0.000
    37 H      -2.312973     0.917379     2.659138 H          1 UNL1 0.000
    38 C       1.788739     0.532384     0.516396 C          1 UNL1 0.000
    39 N       2.417382     1.716067     0.302182 N          1 UNL1 0.000
    40 C       3.773555     1.716724     0.312840 C          1 UNL1 0.000
    41 C       4.525450     0.575004     0.533314 C          1 UNL1 0.000
    42 C       3.875459    -0.640289     0.747810 C          1 UNL1 0.000
    43 C       2.481430    -0.659309     0.736099 C          1 UNL1 0.000
    44 N       5.974344     0.657378     0.546912 N          1 UNL1 0.000
    45 O       6.500226     1.612751    -0.041604 O          1 UNL1 0.000
    46 O       6.591649    -0.233569     1.144752 O          1 UNL1 0.000
    47 H       4.226533     2.690494     0.143055 H          1 UNL1 0.000
    48 H       4.428958    -1.559826     0.920448 H          1 UNL1 0.000
    49 H       1.942152    -1.588294     0.898978 H          1 UNL1 0.000
@<TRIPOS>BOND
     1      1      2   2
     2      2      3   1
     3      3      4   2
     4      4      5   1
     5      5      6   2
     6      6      1   1
     7      4      7   1
     8      7      8   1
     9      8      9   2
    10      9     10   1
    11     10     11   2
    12     11     12   1
    13     12     13   2
    14     13      8   1
    15     14     15   1
    16      1     14   1
    17     16     17   2
    18     17     18   1
    19     18     19   2
    20     19     20   1
    21     20     21   2
    22     21     16   1
    23      7     16   1
    24      2     22   1
    25      3     23   1
    26      5     24   1
    27      6     25   1
    28      9     26   1
    29     10     27   1
    30     11     28   1
    31     12     29   1
    32     13     30   1
    33     15     31   1
    34     15     32   1
    35     15     33   1
    36     17     34   1
    37     18     35   1
    38     20     36   1
    39     21     37   1
    40     38     39   2
    41     39     40   1
    42     40     41   2
    43     41     42   1
    44     42     43   2
    45     43     38   1
    46     44     45   2
    47     44     46   1
    48     41     44   1
    49     40     47   1
    50     42     48   1
    51     43     49   1
    52     19     38   1
