# Produced with molli package
@<TRIPOS>MOLECULE
E_1_O
47 50 0 0 0
SMALL
USER_CHARGES

@<TRIPOS>ATOM
     1 C      -5.818433     4.361733     0.250265 C          1 UNL1 0.000
     2 C      -6.422840     3.245026    -0.323367 C          1 UNL1 0.000
     3 C      -5.794204     1.991217    -0.263365 C          1 UNL1 0.000
     4 C      -4.558785     1.821678     0.383762 C          1 UNL1 0.000
     5 C      -3.965961     2.964726     0.950728 C          1 UNL1 0.000
     6 C      -4.592330     4.213215     0.893275 C          1 UNL1 0.000
     7 N      -3.899774     0.538320     0.449628 N          1 UNL1 0.000
     8 C      -4.609916    -0.715770     0.550444 C          1 UNL1 0.000
     9 C      -5.854507    -0.815287     1.195642 C          1 UNL1 0.000
    10 C      -6.528816    -2.038374     1.286632 C          1 UNL1 0.000
    11 C      -5.964711    -3.191484     0.747779 C          1 UNL1 0.000
    12 C      -4.724897    -3.124557     0.121396 C          1 UNL1 0.000
    13 C      -4.055686    -1.900852     0.025942 C          1 UNL1 0.000
    14 O      -6.323855     5.631525     0.265251 O          1 UNL1 0.000
    15 C      -7.352003     5.913281    -0.675243 C          1 UNL1 0.000
    16 C      -2.462615     0.512944     0.457010 C          1 UNL1 0.000
    17 C      -1.741583     0.849651    -0.696466 C          1 UNL1 0.000
    18 C      -0.344393     0.834940    -0.682886 C          1 UNL1 0.000
    19 C       0.359944     0.496287     0.483182 C          1 UNL1 0.000
    20 C      -0.369670     0.171019     1.637938 C          1 UNL1 0.000
    21 C      -1.766698     0.168945     1.624063 C          1 UNL1 0.000
    22 H      -7.384501     3.310835    -0.820855 H          1 UNL1 0.000
    23 H      -6.278646     1.147138    -0.748315 H          1 UNL1 0.000
    24 H      -3.009254     2.898263     1.463017 H          1 UNL1 0.000
    25 H      -4.111283     5.075507     1.348224 H          1 UNL1 0.000
    26 H      -6.306680     0.058203     1.658274 H          1 UNL1 0.000
    27 H      -7.492260    -2.088524     1.787187 H          1 UNL1 0.000
    28 H      -6.487082    -4.141605     0.821445 H          1 UNL1 0.000
    29 H      -4.274237    -4.021113    -0.296150 H          1 UNL1 0.000
    30 H      -3.094043    -1.882002    -0.481210 H          1 UNL1 0.000
    31 H      -7.038508     5.660551    -1.693824 H          1 UNL1 0.000
    32 H      -7.545353     6.990015    -0.643953 H          1 UNL1 0.000
    33 H      -8.280934     5.400097    -0.408064 H          1 UNL1 0.000
    34 H      -2.270028     1.111944    -1.609336 H          1 UNL1 0.000
    35 H       0.201215     1.093807    -1.588217 H          1 UNL1 0.000
    36 H       0.151290    -0.061740     2.564288 H          1 UNL1 0.000
    37 H      -2.316317    -0.067486     2.531650 H          1 UNL1 0.000
    38 C       1.823918     0.487528     0.493410 C          1 UNL1 0.000
    39 N       2.420874     1.702162     0.427172 N          1 UNL1 0.000
    40 C       3.771152     1.730788     0.451267 C          1 UNL1 0.000
    41 C       4.565324     0.598910     0.523327 C          1 UNL1 0.000
    42 C       3.939234    -0.639974     0.577430 C          1 UNL1 0.000
    43 C       2.548188    -0.700420     0.567135 C          1 UNL1 0.000
    44 H       4.211707     2.722724     0.410721 H          1 UNL1 0.000
    45 H       5.646271     0.681971     0.535894 H          1 UNL1 0.000
    46 H       4.526672    -1.552031     0.627586 H          1 UNL1 0.000
    47 H       2.038795    -1.657693     0.606165 H          1 UNL1 0.000
@<TRIPOS>BOND
     1      1      2   2
     2      2      3   1
     3      3      4   2
     4      4      5   1
     5      5      6   2
     6      6      1   1
     7      4      7   1
     8      7      8   1
     9      8      9   2
    10      9     10   1
    11     10     11   2
    12     11     12   1
    13     12     13   2
    14     13      8   1
    15     14     15   1
    16      1     14   1
    17     16     17   2
    18     17     18   1
    19     18     19   2
    20     19     20   1
    21     20     21   2
    22     21     16   1
    23      7     16   1
    24      2     22   1
    25      3     23   1
    26      5     24   1
    27      6     25   1
    28      9     26   1
    29     10     27   1
    30     11     28   1
    31     12     29   1
    32     13     30   1
    33     15     31   1
    34     15     32   1
    35     15     33   1
    36     17     34   1
    37     18     35   1
    38     20     36   1
    39     21     37   1
    40     38     39   2
    41     39     40   1
    42     40     41   2
    43     41     42   1
    44     42     43   2
    45     43     38   1
    46     40     44   1
    47     41     45   1
    48     42     46   1
    49     43     47   1
    50     19     38   1
