# Produced with molli package
@<TRIPOS>MOLECULE
E_1_L
52 56 0 0 0
SMALL
USER_CHARGES

@<TRIPOS>ATOM
     1 C      -5.904611     4.304727     0.729024 C          1 UNL1 0.000
     2 C      -6.521999     3.164732     1.229020 C          1 UNL1 0.000
     3 C      -5.865772     1.929915     1.157838 C          1 UNL1 0.000
     4 C      -4.589940     1.810585     0.576241 C          1 UNL1 0.000
     5 C      -3.972837     2.998160     0.127239 C          1 UNL1 0.000
     6 C      -4.618721     4.235735     0.208614 C          1 UNL1 0.000
     7 N      -3.909856     0.537246     0.467890 N          1 UNL1 0.000
     8 C      -4.593298    -0.734799     0.371881 C          1 UNL1 0.000
     9 C      -5.854037    -0.861921    -0.236595 C          1 UNL1 0.000
    10 C      -6.514354    -2.095318    -0.293365 C          1 UNL1 0.000
    11 C      -5.914172    -3.236511     0.230560 C          1 UNL1 0.000
    12 C      -4.650314    -3.147940     0.802445 C          1 UNL1 0.000
    13 C      -3.998722    -1.912610     0.869898 C          1 UNL1 0.000
    14 O      -6.548857     5.506564     0.828392 O          1 UNL1 0.000
    15 C      -7.112458     5.866862    -0.433616 C          1 UNL1 0.000
    16 C      -2.472117     0.531972     0.478838 C          1 UNL1 0.000
    17 C      -1.755133     0.290592    -0.701000 C          1 UNL1 0.000
    18 C      -0.357999     0.290159    -0.688030 C          1 UNL1 0.000
    19 C       0.347860     0.510191     0.504687 C          1 UNL1 0.000
    20 C      -0.376726     0.741328     1.684042 C          1 UNL1 0.000
    21 C      -1.773134     0.763177     1.671327 C          1 UNL1 0.000
    22 H      -7.508958     3.232282     1.676933 H          1 UNL1 0.000
    23 H      -6.362257     1.062643     1.584916 H          1 UNL1 0.000
    24 H      -2.975287     2.975831    -0.304439 H          1 UNL1 0.000
    25 H      -4.113620     5.134510    -0.132054 H          1 UNL1 0.000
    26 H      -6.337323    -0.000820    -0.690299 H          1 UNL1 0.000
    27 H      -7.497026    -2.162194    -0.752876 H          1 UNL1 0.000
    28 H      -6.426126    -4.194037     0.186555 H          1 UNL1 0.000
    29 H      -4.167320    -4.035527     1.202801 H          1 UNL1 0.000
    30 H      -3.017968    -1.882869     1.338166 H          1 UNL1 0.000
    31 H      -6.340495     5.984262    -1.202140 H          1 UNL1 0.000
    32 H      -7.616301     6.830604    -0.313103 H          1 UNL1 0.000
    33 H      -7.859090     5.130935    -0.752527 H          1 UNL1 0.000
    34 H      -2.287792     0.123089    -1.633582 H          1 UNL1 0.000
    35 H       0.182073     0.123128    -1.617838 H          1 UNL1 0.000
    36 H       0.148096     0.897375     2.624374 H          1 UNL1 0.000
    37 H      -2.320355     0.935861     2.594536 H          1 UNL1 0.000
    38 C       1.813758     0.500450     0.520163 C          1 UNL1 0.000
    39 C       2.530933     1.699790     0.633944 C          1 UNL1 0.000
    40 C       3.930566     1.724803     0.654466 C          1 UNL1 0.000
    41 C       4.598272     0.499790     0.562728 C          1 UNL1 0.000
    42 C       3.927018    -0.716595     0.450560 C          1 UNL1 0.000
    43 C       2.518154    -0.714226     0.425627 C          1 UNL1 0.000
    44 N       5.946676     0.220274     0.561426 N          1 UNL1 0.000
    45 C       6.149049    -1.130871     0.457937 C          1 UNL1 0.000
    46 C       4.915946    -1.736948     0.387244 C          1 UNL1 0.000
    47 H       1.991485     2.643427     0.702999 H          1 UNL1 0.000
    48 H       4.468145     2.663080     0.739716 H          1 UNL1 0.000
    49 H       1.979911    -1.654806     0.343173 H          1 UNL1 0.000
    50 H       6.675470     0.915907     0.630163 H          1 UNL1 0.000
    51 H       7.149498    -1.542143     0.444013 H          1 UNL1 0.000
    52 H       4.739565    -2.801090     0.300488 H          1 UNL1 0.000
@<TRIPOS>BOND
     1      1      2   2
     2      2      3   1
     3      3      4   2
     4      4      5   1
     5      5      6   2
     6      6      1   1
     7      4      7   1
     8      7      8   1
     9      8      9   2
    10      9     10   1
    11     10     11   2
    12     11     12   1
    13     12     13   2
    14     13      8   1
    15     14     15   1
    16      1     14   1
    17     16     17   2
    18     17     18   1
    19     18     19   2
    20     19     20   1
    21     20     21   2
    22     21     16   1
    23      7     16   1
    24      2     22   1
    25      3     23   1
    26      5     24   1
    27      6     25   1
    28      9     26   1
    29     10     27   1
    30     11     28   1
    31     12     29   1
    32     13     30   1
    33     15     31   1
    34     15     32   1
    35     15     33   1
    36     17     34   1
    37     18     35   1
    38     20     36   1
    39     21     37   1
    40     38     39   2
    41     39     40   1
    42     40     41   2
    43     41     42   1
    44     42     43   2
    45     43     38   1
    46     41     44   1
    47     44     45   1
    48     45     46   2
    49     46     42   1
    50     39     47   1
    51     40     48   1
    52     43     49   1
    53     44     50   1
    54     45     51   1
    55     46     52   1
    56     19     38   1
