# Produced with molli package
@<TRIPOS>MOLECULE
E_1_Q
46 49 0 0 0
SMALL
USER_CHARGES

@<TRIPOS>ATOM
     1 C      -5.967134     4.247558     0.675077 C          1 UNL1 0.000
     2 C      -6.540770     3.114150     1.240389 C          1 UNL1 0.000
     3 C      -5.869994     1.886666     1.179642 C          1 UNL1 0.000
     4 C      -4.617726     1.770574     0.550516 C          1 UNL1 0.000
     5 C      -4.039799     2.950011     0.035288 C          1 UNL1 0.000
     6 C      -4.702870     4.178957     0.101961 C          1 UNL1 0.000
     7 N      -3.919882     0.507145     0.457777 N          1 UNL1 0.000
     8 C      -4.589499    -0.771696     0.362982 C          1 UNL1 0.000
     9 C      -5.853715    -0.910369    -0.235541 C          1 UNL1 0.000
    10 C      -6.495315    -2.153036    -0.300924 C          1 UNL1 0.000
    11 C      -5.874505    -3.290216     0.207784 C          1 UNL1 0.000
    12 C      -4.610308    -3.187823     0.776988 C          1 UNL1 0.000
    13 C      -3.976980    -1.943631     0.852918 C          1 UNL1 0.000
    14 O      -6.644403     5.431633     0.772200 O          1 UNL1 0.000
    15 C      -7.049690     5.894979    -0.516365 C          1 UNL1 0.000
    16 C      -2.482488     0.525334     0.465959 C          1 UNL1 0.000
    17 C      -1.761913     0.197955    -0.690333 C          1 UNL1 0.000
    18 C      -0.364433     0.224390    -0.682347 C          1 UNL1 0.000
    19 C       0.344787     0.561448     0.483678 C          1 UNL1 0.000
    20 C      -0.388333     0.891583     1.635706 C          1 UNL1 0.000
    21 C      -1.785308     0.878070     1.628721 C          1 UNL1 0.000
    22 H      -7.508909     3.181623     1.728061 H          1 UNL1 0.000
    23 H      -6.333140     1.023623     1.650795 H          1 UNL1 0.000
    24 H      -3.060407     2.926367    -0.436604 H          1 UNL1 0.000
    25 H      -4.219952     5.070894    -0.285395 H          1 UNL1 0.000
    26 H      -6.353841    -0.051713    -0.675590 H          1 UNL1 0.000
    27 H      -7.479658    -2.230221    -0.755356 H          1 UNL1 0.000
    28 H      -6.372034    -4.254996     0.155906 H          1 UNL1 0.000
    29 H      -4.113756    -4.071762     1.168712 H          1 UNL1 0.000
    30 H      -2.996512    -1.900781     1.320869 H          1 UNL1 0.000
    31 H      -6.190773     6.137032    -1.151060 H          1 UNL1 0.000
    32 H      -7.629102     6.812312    -0.375216 H          1 UNL1 0.000
    33 H      -7.694431     5.159192    -1.010177 H          1 UNL1 0.000
    34 H      -2.293516    -0.051042    -1.605696 H          1 UNL1 0.000
    35 H       0.167541     0.000849    -1.605126 H          1 UNL1 0.000
    36 H       0.134662     1.159335     2.552567 H          1 UNL1 0.000
    37 H      -2.332487     1.126538     2.534770 H          1 UNL1 0.000
    38 C       1.809706     0.574633     0.505295 C          1 UNL1 0.000
    39 N       2.398583     1.727630     0.917491 N          1 UNL1 0.000
    40 C       3.751431     1.733468     0.919524 C          1 UNL1 0.000
    41 C       4.502141     0.633150     0.543538 C          1 UNL1 0.000
    42 N       3.935257    -0.526297     0.144143 N          1 UNL1 0.000
    43 C       2.578798    -0.527180     0.133649 C          1 UNL1 0.000
    44 H       4.220709     2.659144     1.233038 H          1 UNL1 0.000
    45 H       5.585625     0.655191     0.554110 H          1 UNL1 0.000
    46 H       2.118948    -1.460478    -0.175070 H          1 UNL1 0.000
@<TRIPOS>BOND
     1      1      2   2
     2      2      3   1
     3      3      4   2
     4      4      5   1
     5      5      6   2
     6      6      1   1
     7      4      7   1
     8      7      8   1
     9      8      9   2
    10      9     10   1
    11     10     11   2
    12     11     12   1
    13     12     13   2
    14     13      8   1
    15     14     15   1
    16      1     14   1
    17     16     17   2
    18     17     18   1
    19     18     19   2
    20     19     20   1
    21     20     21   2
    22     21     16   1
    23      7     16   1
    24      2     22   1
    25      3     23   1
    26      5     24   1
    27      6     25   1
    28      9     26   1
    29     10     27   1
    30     11     28   1
    31     12     29   1
    32     13     30   1
    33     15     31   1
    34     15     32   1
    35     15     33   1
    36     17     34   1
    37     18     35   1
    38     20     36   1
    39     21     37   1
    40     38     39   2
    41     39     40   1
    42     40     41   2
    43     41     42   1
    44     42     43   2
    45     43     38   1
    46     40     44   1
    47     41     45   1
    48     43     46   1
    49     19     38   1
