# Produced with molli package
@<TRIPOS>MOLECULE
E_1_T
51 54 0 0 0
SMALL
USER_CHARGES

@<TRIPOS>ATOM
     1 C      -5.888788     4.292243     0.334628 C          1 UNL1 0.000
     2 C      -6.447637     3.171106    -0.277275 C          1 UNL1 0.000
     3 C      -5.783143     1.937170    -0.222523 C          1 UNL1 0.000
     4 C      -4.562277     1.794132     0.456988 C          1 UNL1 0.000
     5 C      -4.015881     2.942888     1.060163 C          1 UNL1 0.000
     6 C      -4.680276     4.171657     1.012075 C          1 UNL1 0.000
     7 N      -3.874426     0.527142     0.531235 N          1 UNL1 0.000
     8 C      -4.561206    -0.738838     0.653554 C          1 UNL1 0.000
     9 C      -5.815480    -0.846272     1.278242 C          1 UNL1 0.000
    10 C      -6.470263    -2.078415     1.387342 C          1 UNL1 0.000
    11 C      -5.875195    -3.233979     0.888211 C          1 UNL1 0.000
    12 C      -4.625202    -3.159611     0.284332 C          1 UNL1 0.000
    13 C      -3.975891    -1.926578     0.169574 C          1 UNL1 0.000
    14 O      -6.467177     5.530426     0.372785 O          1 UNL1 0.000
    15 C      -7.146201     5.907254    -0.820101 C          1 UNL1 0.000
    16 C      -2.437732     0.533560     0.515483 C          1 UNL1 0.000
    17 C      -1.744853     0.874058    -0.654203 C          1 UNL1 0.000
    18 C      -0.348257     0.868965    -0.672590 C          1 UNL1 0.000
    19 C       0.382918     0.545538     0.480451 C          1 UNL1 0.000
    20 C      -0.315765     0.217007     1.651779 C          1 UNL1 0.000
    21 C      -1.712442     0.200415     1.667970 C          1 UNL1 0.000
    22 H      -7.404957     3.222248    -0.783720 H          1 UNL1 0.000
    23 H      -6.231045     1.084351    -0.728263 H          1 UNL1 0.000
    24 H      -3.074507     2.889696     1.600026 H          1 UNL1 0.000
    25 H      -4.244943     5.038710     1.502941 H          1 UNL1 0.000
    26 H      -6.293524     0.029277     1.710634 H          1 UNL1 0.000
    27 H      -7.442087    -2.133416     1.870301 H          1 UNL1 0.000
    28 H      -6.382069    -4.191287     0.975972 H          1 UNL1 0.000
    29 H      -4.149922    -4.058063    -0.101243 H          1 UNL1 0.000
    30 H      -3.005246    -1.904363    -0.319489 H          1 UNL1 0.000
    31 H      -6.507517     5.770304    -1.699646 H          1 UNL1 0.000
    32 H      -7.385505     6.972373    -0.742602 H          1 UNL1 0.000
    33 H      -8.089061     5.363551    -0.930354 H          1 UNL1 0.000
    34 H      -2.296037     1.119776    -1.558245 H          1 UNL1 0.000
    35 H       0.172029     1.112741    -1.596727 H          1 UNL1 0.000
    36 H       0.229244    -0.022325     2.562627 H          1 UNL1 0.000
    37 H      -2.239381    -0.049830     2.585344 H          1 UNL1 0.000
    38 C       1.846979     0.549783     0.459006 C          1 UNL1 0.000
    39 C       2.561134     1.754263     0.522583 C          1 UNL1 0.000
    40 C       3.958569     1.760083     0.495105 C          1 UNL1 0.000
    41 C       4.669819     0.560237     0.391470 C          1 UNL1 0.000
    42 C       3.962733    -0.646098     0.339352 C          1 UNL1 0.000
    43 C       2.565659    -0.650347     0.371491 C          1 UNL1 0.000
    44 C       6.169376     0.553509     0.376739 C          1 UNL1 0.000
    45 H       2.027300     2.699335     0.600044 H          1 UNL1 0.000
    46 H       4.484886     2.710028     0.553228 H          1 UNL1 0.000
    47 H       4.495420    -1.591891     0.270436 H          1 UNL1 0.000
    48 H       2.035695    -1.599341     0.321419 H          1 UNL1 0.000
    49 H       6.540070    -0.106217    -0.414724 H          1 UNL1 0.000
    50 H       6.552406     0.207505     1.341749 H          1 UNL1 0.000
    51 H       6.570756     1.553913     0.184072 H          1 UNL1 0.000
@<TRIPOS>BOND
     1      1      2   2
     2      2      3   1
     3      3      4   2
     4      4      5   1
     5      5      6   2
     6      6      1   1
     7      4      7   1
     8      7      8   1
     9      8      9   2
    10      9     10   1
    11     10     11   2
    12     11     12   1
    13     12     13   2
    14     13      8   1
    15     14     15   1
    16      1     14   1
    17     16     17   2
    18     17     18   1
    19     18     19   2
    20     19     20   1
    21     20     21   2
    22     21     16   1
    23      7     16   1
    24      2     22   1
    25      3     23   1
    26      5     24   1
    27      6     25   1
    28      9     26   1
    29     10     27   1
    30     11     28   1
    31     12     29   1
    32     13     30   1
    33     15     31   1
    34     15     32   1
    35     15     33   1
    36     17     34   1
    37     18     35   1
    38     20     36   1
    39     21     37   1
    40     38     39   2
    41     39     40   1
    42     40     41   2
    43     41     42   1
    44     42     43   2
    45     43     38   1
    46     41     44   1
    47     39     45   1
    48     40     46   1
    49     42     47   1
    50     43     48   1
    51     44     49   1
    52     44     50   1
    53     44     51   1
    54     19     38   1
