# Produced with molli package
@<TRIPOS>MOLECULE
E_1_P
52 55 0 0 0
SMALL
USER_CHARGES

@<TRIPOS>ATOM
     1 C      -5.921886     4.377148     0.312368 C          1 UNL1 0.000
     2 C      -6.549712     3.238164    -0.181279 C          1 UNL1 0.000
     3 C      -5.887721     2.002711    -0.149176 C          1 UNL1 0.000
     4 C      -4.604822     1.872144     0.413774 C          1 UNL1 0.000
     5 C      -3.994013     3.047618     0.896766 C          1 UNL1 0.000
     6 C      -4.647746     4.283330     0.858409 C          1 UNL1 0.000
     7 N      -3.922733     0.598155     0.487812 N          1 UNL1 0.000
     8 C      -4.601377    -0.677650     0.557741 C          1 UNL1 0.000
     9 C      -5.848789    -0.827791     1.187822 C          1 UNL1 0.000
    10 C      -6.495612    -2.068812     1.232595 C          1 UNL1 0.000
    11 C      -5.896725    -3.193003     0.671541 C          1 UNL1 0.000
    12 C      -4.647527    -3.080118     0.071543 C          1 UNL1 0.000
    13 C      -4.008846    -1.837639     0.017570 C          1 UNL1 0.000
    14 O      -6.534465     5.598209     0.366341 O          1 UNL1 0.000
    15 C      -6.938099     6.059789    -0.920725 C          1 UNL1 0.000
    16 C      -2.485413     0.593795     0.526482 C          1 UNL1 0.000
    17 C      -1.744959     0.852714    -0.634248 C          1 UNL1 0.000
    18 C      -0.349027     0.822106    -0.598482 C          1 UNL1 0.000
    19 C       0.332405     0.554146     0.598892 C          1 UNL1 0.000
    20 C      -0.414592     0.313649     1.761536 C          1 UNL1 0.000
    21 C      -1.811031     0.322508     1.725173 C          1 UNL1 0.000
    22 H      -7.560898     3.286712    -0.573838 H          1 UNL1 0.000
    23 H      -6.394369     1.141038    -0.575126 H          1 UNL1 0.000
    24 H      -3.000487     3.017337     1.337583 H          1 UNL1 0.000
    25 H      -4.159603     5.167640     1.257362 H          1 UNL1 0.000
    26 H      -6.327871     0.018915     1.672004 H          1 UNL1 0.000
    27 H      -7.466134    -2.155563     1.714552 H          1 UNL1 0.000
    28 H      -6.397599    -4.156692     0.708868 H          1 UNL1 0.000
    29 H      -4.166063    -3.954428    -0.358445 H          1 UNL1 0.000
    30 H      -3.038618    -1.786517    -0.470748 H          1 UNL1 0.000
    31 H      -6.089797     6.081828    -1.613721 H          1 UNL1 0.000
    32 H      -7.306219     7.083962    -0.805363 H          1 UNL1 0.000
    33 H      -7.755271     5.457272    -1.328560 H          1 UNL1 0.000
    34 H      -2.258666     1.050119    -1.571513 H          1 UNL1 0.000
    35 H       0.209377     0.995926    -1.516105 H          1 UNL1 0.000
    36 H       0.090638     0.117850     2.704989 H          1 UNL1 0.000
    37 H      -2.377542     0.135116     2.633878 H          1 UNL1 0.000
    38 C       1.796210     0.510512     0.626682 C          1 UNL1 0.000
    39 C       2.551466     1.693963     0.612115 C          1 UNL1 0.000
    40 C       3.947811     1.648502     0.617089 C          1 UNL1 0.000
    41 C       4.595274     0.416067     0.647305 C          1 UNL1 0.000
    42 C       3.866475    -0.769048     0.641565 C          1 UNL1 0.000
    43 C       2.471137    -0.720788     0.643037 C          1 UNL1 0.000
    44 O       5.960438     0.345892     0.601077 O          1 UNL1 0.000
    45 C       6.511763     0.599583     1.892913 C          1 UNL1 0.000
    46 H       2.050387     2.659546     0.589424 H          1 UNL1 0.000
    47 H       4.521550     2.569599     0.583930 H          1 UNL1 0.000
    48 H       4.380061    -1.725659     0.632049 H          1 UNL1 0.000
    49 H       1.907132    -1.651266     0.638734 H          1 UNL1 0.000
    50 H       7.593850     0.450676     1.829164 H          1 UNL1 0.000
    51 H       6.116870    -0.101248     2.637169 H          1 UNL1 0.000
    52 H       6.330178     1.633131     2.206241 H          1 UNL1 0.000
@<TRIPOS>BOND
     1      1      2   2
     2      2      3   1
     3      3      4   2
     4      4      5   1
     5      5      6   2
     6      6      1   1
     7      4      7   1
     8      7      8   1
     9      8      9   2
    10      9     10   1
    11     10     11   2
    12     11     12   1
    13     12     13   2
    14     13      8   1
    15     14     15   1
    16      1     14   1
    17     16     17   2
    18     17     18   1
    19     18     19   2
    20     19     20   1
    21     20     21   2
    22     21     16   1
    23      7     16   1
    24      2     22   1
    25      3     23   1
    26      5     24   1
    27      6     25   1
    28      9     26   1
    29     10     27   1
    30     11     28   1
    31     12     29   1
    32     13     30   1
    33     15     31   1
    34     15     32   1
    35     15     33   1
    36     17     34   1
    37     18     35   1
    38     20     36   1
    39     21     37   1
    40     38     39   2
    41     39     40   1
    42     40     41   2
    43     41     42   1
    44     42     43   2
    45     43     38   1
    46     44     45   1
    47     41     44   1
    48     39     46   1
    49     40     47   1
    50     42     48   1
    51     43     49   1
    52     45     50   1
    53     45     51   1
    54     45     52   1
    55     19     38   1
