# Produced with molli package
@<TRIPOS>MOLECULE
E_2_R
49 52 0 0 0
SMALL
USER_CHARGES

@<TRIPOS>ATOM
     1 C      -3.884345     4.406080    -1.095831 C          1 UNL1 0.000
     2 C      -4.508878     3.232673    -1.503865 C          1 UNL1 0.000
     3 C      -3.821827     2.013303    -1.426747 C          1 UNL1 0.000
     4 C      -2.517385     1.934297    -0.904916 C          1 UNL1 0.000
     5 C      -1.899636     3.151415    -0.551979 C          1 UNL1 0.000
     6 C      -2.581726     4.369679    -0.619471 C          1 UNL1 0.000
     7 N      -1.828131     0.672080    -0.734814 N          1 UNL1 0.000
     8 C      -2.505931    -0.604516    -0.631584 C          1 UNL1 0.000
     9 C      -3.744875    -0.739641     0.019208 C          1 UNL1 0.000
    10 C      -4.398278    -1.975869     0.091367 C          1 UNL1 0.000
    11 C      -3.812762    -3.111064    -0.461636 C          1 UNL1 0.000
    12 C      -2.569572    -3.013672    -1.076424 C          1 UNL1 0.000
    13 C      -1.923403    -1.775839    -1.156334 C          1 UNL1 0.000
    14 O      -4.533701     5.608018    -1.066263 O          1 UNL1 0.000
    15 C      -4.885291     6.049215    -2.375517 C          1 UNL1 0.000
    16 C      -0.384632     0.666507    -0.651798 C          1 UNL1 0.000
    17 C       0.355127     0.780524    -1.846134 C          1 UNL1 0.000
    18 C       1.747436     0.729045    -1.827811 C          1 UNL1 0.000
    19 C       2.418501     0.571562    -0.618733 C          1 UNL1 0.000
    20 C       1.699251     0.478674     0.575570 C          1 UNL1 0.000
    21 C       0.292982     0.533590     0.586218 C          1 UNL1 0.000
    22 H      -5.534753     3.245463    -1.859022 H          1 UNL1 0.000
    23 H      -4.332062     1.121369    -1.781191 H          1 UNL1 0.000
    24 H      -0.876875     3.173489    -0.189784 H          1 UNL1 0.000
    25 H      -2.094138     5.284990    -0.296698 H          1 UNL1 0.000
    26 H      -4.210586     0.117132     0.498307 H          1 UNL1 0.000
    27 H      -5.361860    -2.051216     0.588211 H          1 UNL1 0.000
    28 H      -4.317149    -4.071855    -0.402878 H          1 UNL1 0.000
    29 H      -2.095955    -3.897987    -1.494802 H          1 UNL1 0.000
    30 H      -0.955880    -1.741032    -1.649372 H          1 UNL1 0.000
    31 H      -4.006896     6.080540    -3.029696 H          1 UNL1 0.000
    32 H      -5.277590     7.066998    -2.287998 H          1 UNL1 0.000
    33 H      -5.669840     5.423534    -2.811953 H          1 UNL1 0.000
    34 H      -0.168335     0.884389    -2.793895 H          1 UNL1 0.000
    35 H       2.306019     0.800472    -2.757464 H          1 UNL1 0.000
    36 H       3.504594     0.523700    -0.601867 H          1 UNL1 0.000
    37 H       2.241736     0.366193     1.512799 H          1 UNL1 0.000
    38 C      -0.411126     0.528783     1.873278 C          1 UNL1 0.000
    39 N      -0.675644    -0.686076     2.415856 N          1 UNL1 0.000
    40 C      -1.344871    -0.713037     3.596734 C          1 UNL1 0.000
    41 C      -1.735555     0.431032     4.274662 C          1 UNL1 0.000
    42 C      -1.427318     1.677303     3.733351 C          1 UNL1 0.000
    43 C      -0.748941     1.722128     2.517463 C          1 UNL1 0.000
    44 N      -2.448745     0.323942     5.537222 N          1 UNL1 0.000
    45 O      -2.936853     1.358550     6.011197 O          1 UNL1 0.000
    46 O      -2.520215    -0.794789     6.066253 O          1 UNL1 0.000
    47 H      -1.554397    -1.712347     3.969781 H          1 UNL1 0.000
    48 H      -1.701916     2.603696     4.231462 H          1 UNL1 0.000
    49 H      -0.489523     2.680466     2.079461 H          1 UNL1 0.000
@<TRIPOS>BOND
     1      1      2   2
     2      2      3   1
     3      3      4   2
     4      4      5   1
     5      5      6   2
     6      6      1   1
     7      4      7   1
     8      7      8   1
     9      8      9   2
    10      9     10   1
    11     10     11   2
    12     11     12   1
    13     12     13   2
    14     13      8   1
    15     14     15   1
    16      1     14   1
    17     16     17   2
    18     17     18   1
    19     18     19   2
    20     19     20   1
    21     20     21   2
    22     21     16   1
    23      7     16   1
    24      2     22   1
    25      3     23   1
    26      5     24   1
    27      6     25   1
    28      9     26   1
    29     10     27   1
    30     11     28   1
    31     12     29   1
    32     13     30   1
    33     15     31   1
    34     15     32   1
    35     15     33   1
    36     17     34   1
    37     18     35   1
    38     19     36   1
    39     20     37   1
    40     38     39   2
    41     39     40   1
    42     40     41   2
    43     41     42   1
    44     42     43   2
    45     43     38   1
    46     44     45   2
    47     44     46   1
    48     41     44   1
    49     40     47   1
    50     42     48   1
    51     43     49   1
    52     21     38   1
