# Produced with molli package
@<TRIPOS>MOLECULE
E_2_M
49 52 0 0 0
SMALL
USER_CHARGES

@<TRIPOS>ATOM
     1 C      -3.765029     4.389816    -0.639103 C          1 UNL1 0.000
     2 C      -4.417193     3.260526    -0.161392 C          1 UNL1 0.000
     3 C      -3.771084     2.015930    -0.182265 C          1 UNL1 0.000
     4 C      -2.477407     1.864745    -0.712623 C          1 UNL1 0.000
     5 C      -1.824877     3.048571    -1.128301 C          1 UNL1 0.000
     6 C      -2.454084     4.298285    -1.084242 C          1 UNL1 0.000
     7 N      -1.800797     0.580596    -0.779875 N          1 UNL1 0.000
     8 C      -2.461643    -0.709355    -0.901815 C          1 UNL1 0.000
     9 C      -3.790634    -0.854556    -1.333148 C          1 UNL1 0.000
    10 C      -4.420663    -2.107475    -1.373170 C          1 UNL1 0.000
    11 C      -3.719584    -3.259653    -1.035442 C          1 UNL1 0.000
    12 C      -2.382531    -3.162316    -0.679461 C          1 UNL1 0.000
    13 C      -1.766564    -1.907611    -0.619571 C          1 UNL1 0.000
    14 O      -4.405374     5.595773    -0.573532 O          1 UNL1 0.000
    15 C      -4.785163     6.034401    -1.878900 C          1 UNL1 0.000
    16 C      -0.352688     0.589692    -0.735000 C          1 UNL1 0.000
    17 C       0.353954     0.551052    -1.954747 C          1 UNL1 0.000
    18 C       1.746686     0.547054    -1.969240 C          1 UNL1 0.000
    19 C       2.450294     0.565018    -0.768711 C          1 UNL1 0.000
    20 C       1.763415     0.587369     0.448234 C          1 UNL1 0.000
    21 C       0.357119     0.601887     0.492990 C          1 UNL1 0.000
    22 H      -5.425450     3.343877     0.234214 H          1 UNL1 0.000
    23 H      -4.295582     1.170862     0.254110 H          1 UNL1 0.000
    24 H      -0.803196     3.023178    -1.497113 H          1 UNL1 0.000
    25 H      -1.911793     5.187781    -1.390948 H          1 UNL1 0.000
    26 H      -4.369381     0.000888    -1.666215 H          1 UNL1 0.000
    27 H      -5.462165    -2.178766    -1.676273 H          1 UNL1 0.000
    28 H      -4.207508    -4.229901    -1.066190 H          1 UNL1 0.000
    29 H      -1.811318    -4.056139    -0.442837 H          1 UNL1 0.000
    30 H      -0.718398    -1.892101    -0.336031 H          1 UNL1 0.000
    31 H      -3.911216     6.232893    -2.508630 H          1 UNL1 0.000
    32 H      -5.339515     6.971616    -1.769578 H          1 UNL1 0.000
    33 H      -5.445722     5.304865    -2.360965 H          1 UNL1 0.000
    34 H      -0.196458     0.531675    -2.892725 H          1 UNL1 0.000
    35 H       2.280288     0.526255    -2.915857 H          1 UNL1 0.000
    36 H       3.537498     0.553685    -0.776248 H          1 UNL1 0.000
    37 H       2.334430     0.585271     1.375219 H          1 UNL1 0.000
    38 C      -0.315112     0.564893     1.801549 C          1 UNL1 0.000
    39 C      -0.847563     1.726442     2.378402 C          1 UNL1 0.000
    40 C      -1.490428     1.680254     3.620054 C          1 UNL1 0.000
    41 C      -1.604981     0.468535     4.306860 C          1 UNL1 0.000
    42 C      -1.069354    -0.694787     3.749976 C          1 UNL1 0.000
    43 C      -0.425704    -0.643315     2.510365 C          1 UNL1 0.000
    44 C      -2.266433     0.417448     5.578710 C          1 UNL1 0.000
    45 N      -2.796280     0.371035     6.608616 N          1 UNL1 0.000
    46 H      -0.772824     2.677690     1.854703 H          1 UNL1 0.000
    47 H      -1.902450     2.596070     4.039229 H          1 UNL1 0.000
    48 H      -1.151051    -1.647522     4.269536 H          1 UNL1 0.000
    49 H      -0.018214    -1.560588     2.089584 H          1 UNL1 0.000
@<TRIPOS>BOND
     1      1      2   2
     2      2      3   1
     3      3      4   2
     4      4      5   1
     5      5      6   2
     6      6      1   1
     7      4      7   1
     8      7      8   1
     9      8      9   2
    10      9     10   1
    11     10     11   2
    12     11     12   1
    13     12     13   2
    14     13      8   1
    15     14     15   1
    16      1     14   1
    17     16     17   2
    18     17     18   1
    19     18     19   2
    20     19     20   1
    21     20     21   2
    22     21     16   1
    23      7     16   1
    24      2     22   1
    25      3     23   1
    26      5     24   1
    27      6     25   1
    28      9     26   1
    29     10     27   1
    30     11     28   1
    31     12     29   1
    32     13     30   1
    33     15     31   1
    34     15     32   1
    35     15     33   1
    36     17     34   1
    37     18     35   1
    38     19     36   1
    39     20     37   1
    40     38     39   2
    41     39     40   1
    42     40     41   2
    43     41     42   1
    44     42     43   2
    45     43     38   1
    46     44     45   3
    47     41     44   1
    48     39     46   1
    49     40     47   1
    50     42     48   1
    51     43     49   1
    52     21     38   1
