# Produced with molli package
@<TRIPOS>MOLECULE
E_2_O
47 50 0 0 0
SMALL
USER_CHARGES

@<TRIPOS>ATOM
     1 C      -3.672350     4.536542    -1.218240 C          1 UNL1 0.000
     2 C      -4.276138     3.387737    -1.722869 C          1 UNL1 0.000
     3 C      -3.657176     2.138366    -1.565182 C          1 UNL1 0.000
     4 C      -2.431496     2.004508    -0.890025 C          1 UNL1 0.000
     5 C      -1.834550     3.182378    -0.408009 C          1 UNL1 0.000
     6 C      -2.455370     4.426608    -0.552127 C          1 UNL1 0.000
     7 N      -1.793691     0.721176    -0.712147 N          1 UNL1 0.000
     8 C      -2.532313    -0.520318    -0.640562 C          1 UNL1 0.000
     9 C      -3.781346    -0.595478     0.001146 C          1 UNL1 0.000
    10 C      -4.493311    -1.798398     0.065261 C          1 UNL1 0.000
    11 C      -3.963946    -2.955390    -0.499831 C          1 UNL1 0.000
    12 C      -2.719153    -2.912971    -1.119440 C          1 UNL1 0.000
    13 C      -2.009513    -1.709694    -1.183700 C          1 UNL1 0.000
    14 O      -4.177164     5.804349    -1.293311 O          1 UNL1 0.000
    15 C      -5.105359     6.041716    -2.344373 C          1 UNL1 0.000
    16 C      -0.351475     0.660723    -0.651878 C          1 UNL1 0.000
    17 C       0.376270     0.827369    -1.847886 C          1 UNL1 0.000
    18 C       1.767223     0.741188    -1.854169 C          1 UNL1 0.000
    19 C       2.450486     0.497035    -0.666844 C          1 UNL1 0.000
    20 C       1.744522     0.351728     0.529989 C          1 UNL1 0.000
    21 C       0.339616     0.437524     0.564549 C          1 UNL1 0.000
    22 H      -5.232048     3.423998    -2.234282 H          1 UNL1 0.000
    23 H      -4.144494     1.266626    -1.995584 H          1 UNL1 0.000
    24 H      -0.879560     3.150387     0.105831 H          1 UNL1 0.000
    25 H      -1.977283     5.315623    -0.149215 H          1 UNL1 0.000
    26 H      -4.198579     0.282407     0.487185 H          1 UNL1 0.000
    27 H      -5.455306    -1.831105     0.568948 H          1 UNL1 0.000
    28 H      -4.512701    -3.891535    -0.445455 H          1 UNL1 0.000
    29 H      -2.291298    -3.814816    -1.548956 H          1 UNL1 0.000
    30 H      -1.039930    -1.713808    -1.673744 H          1 UNL1 0.000
    31 H      -4.699728     5.724848    -3.311350 H          1 UNL1 0.000
    32 H      -5.281527     7.120590    -2.394253 H          1 UNL1 0.000
    33 H      -6.064646     5.556528    -2.139951 H          1 UNL1 0.000
    34 H      -0.156552     1.003486    -2.779522 H          1 UNL1 0.000
    35 H       2.314268     0.856177    -2.786109 H          1 UNL1 0.000
    36 H       3.535064     0.423539    -0.668176 H          1 UNL1 0.000
    37 H       2.294991     0.172568     1.452003 H          1 UNL1 0.000
    38 C      -0.347675     0.378263     1.859213 C          1 UNL1 0.000
    39 N      -0.810534    -0.834132     2.244237 N          1 UNL1 0.000
    40 C      -1.481353    -0.895298     3.415114 C          1 UNL1 0.000
    41 C      -1.684097     0.191397     4.250309 C          1 UNL1 0.000
    42 C      -1.167228     1.420289     3.863542 C          1 UNL1 0.000
    43 C      -0.488015     1.517225     2.653324 C          1 UNL1 0.000
    44 H      -1.868463    -1.876972     3.671439 H          1 UNL1 0.000
    45 H      -2.230917     0.081975     5.179611 H          1 UNL1 0.000
    46 H      -1.297161     2.297234     4.490725 H          1 UNL1 0.000
    47 H      -0.081414     2.469928     2.331147 H          1 UNL1 0.000
@<TRIPOS>BOND
     1      1      2   2
     2      2      3   1
     3      3      4   2
     4      4      5   1
     5      5      6   2
     6      6      1   1
     7      4      7   1
     8      7      8   1
     9      8      9   2
    10      9     10   1
    11     10     11   2
    12     11     12   1
    13     12     13   2
    14     13      8   1
    15     14     15   1
    16      1     14   1
    17     16     17   2
    18     17     18   1
    19     18     19   2
    20     19     20   1
    21     20     21   2
    22     21     16   1
    23      7     16   1
    24      2     22   1
    25      3     23   1
    26      5     24   1
    27      6     25   1
    28      9     26   1
    29     10     27   1
    30     11     28   1
    31     12     29   1
    32     13     30   1
    33     15     31   1
    34     15     32   1
    35     15     33   1
    36     17     34   1
    37     18     35   1
    38     19     36   1
    39     20     37   1
    40     38     39   2
    41     39     40   1
    42     40     41   2
    43     41     42   1
    44     42     43   2
    45     43     38   1
    46     40     44   1
    47     41     45   1
    48     42     46   1
    49     43     47   1
    50     21     38   1
