# Produced with molli package
@<TRIPOS>MOLECULE
E_2_Q
46 49 0 0 0
SMALL
USER_CHARGES

@<TRIPOS>ATOM
     1 C      -3.837925     4.250296    -0.654503 C          1 UNL1 0.000
     2 C      -4.386745     3.150728    -0.001171 C          1 UNL1 0.000
     3 C      -3.718423     1.921349    -0.008979 C          1 UNL1 0.000
     4 C      -2.485826     1.768790    -0.666524 C          1 UNL1 0.000
     5 C      -1.917613     2.914004    -1.255920 C          1 UNL1 0.000
     6 C      -2.586078     4.143359    -1.252572 C          1 UNL1 0.000
     7 N      -1.809651     0.493690    -0.710523 N          1 UNL1 0.000
     8 C      -2.508637    -0.761023    -0.885774 C          1 UNL1 0.000
     9 C      -3.757810    -0.831169    -1.529317 C          1 UNL1 0.000
    10 C      -4.431754    -2.048202    -1.684157 C          1 UNL1 0.000
    11 C      -3.862036    -3.227764    -1.215421 C          1 UNL1 0.000
    12 C      -2.616462    -3.191910    -0.598939 C          1 UNL1 0.000
    13 C      -1.947949    -1.973783    -0.440493 C          1 UNL1 0.000
    14 O      -4.558638     5.412223    -0.616472 O          1 UNL1 0.000
    15 C      -4.655910     6.051480    -1.888296 C          1 UNL1 0.000
    16 C      -0.367901     0.483489    -0.642485 C          1 UNL1 0.000
    17 C       0.363158     0.345762    -1.839288 C          1 UNL1 0.000
    18 C       1.756147     0.379055    -1.829785 C          1 UNL1 0.000
    19 C       2.436672     0.531688    -0.625558 C          1 UNL1 0.000
    20 C       1.725272     0.641231     0.572085 C          1 UNL1 0.000
    21 C       0.318077     0.618994     0.587807 C          1 UNL1 0.000
    22 H      -5.342926     3.243767     0.506431 H          1 UNL1 0.000
    23 H      -4.165328     1.081923     0.518576 H          1 UNL1 0.000
    24 H      -0.952051     2.861498    -1.751363 H          1 UNL1 0.000
    25 H      -2.107556     5.002443    -1.711400 H          1 UNL1 0.000
    26 H      -4.220718     0.063141    -1.937728 H          1 UNL1 0.000
    27 H      -5.400552    -2.070741    -2.176017 H          1 UNL1 0.000
    28 H      -4.384483    -4.172989    -1.333797 H          1 UNL1 0.000
    29 H      -2.159855    -4.107277    -0.232045 H          1 UNL1 0.000
    30 H      -0.985314    -1.986578     0.065242 H          1 UNL1 0.000
    31 H      -3.715638     6.540493    -2.160935 H          1 UNL1 0.000
    32 H      -5.423953     6.827402    -1.814357 H          1 UNL1 0.000
    33 H      -4.966249     5.345447    -2.667328 H          1 UNL1 0.000
    34 H      -0.167381     0.227783    -2.781366 H          1 UNL1 0.000
    35 H       2.308087     0.282316    -2.761132 H          1 UNL1 0.000
    36 H       3.523705     0.548245    -0.613550 H          1 UNL1 0.000
    37 H       2.276158     0.722636     1.507745 H          1 UNL1 0.000
    38 C      -0.386399     0.663521     1.869837 C          1 UNL1 0.000
    39 N      -0.684470    -0.539990     2.427778 N          1 UNL1 0.000
    40 C      -1.343693    -0.496810     3.607193 C          1 UNL1 0.000
    41 C      -1.664250     0.693555     4.235745 C          1 UNL1 0.000
    42 N      -1.347741     1.897951     3.711840 N          1 UNL1 0.000
    43 C      -0.712166     1.854431     2.512563 C          1 UNL1 0.000
    44 H      -1.610232    -1.455569     4.036211 H          1 UNL1 0.000
    45 H      -2.188330     0.708759     5.184522 H          1 UNL1 0.000
    46 H      -0.468660     2.817638     2.077923 H          1 UNL1 0.000
@<TRIPOS>BOND
     1      1      2   2
     2      2      3   1
     3      3      4   2
     4      4      5   1
     5      5      6   2
     6      6      1   1
     7      4      7   1
     8      7      8   1
     9      8      9   2
    10      9     10   1
    11     10     11   2
    12     11     12   1
    13     12     13   2
    14     13      8   1
    15     14     15   1
    16      1     14   1
    17     16     17   2
    18     17     18   1
    19     18     19   2
    20     19     20   1
    21     20     21   2
    22     21     16   1
    23      7     16   1
    24      2     22   1
    25      3     23   1
    26      5     24   1
    27      6     25   1
    28      9     26   1
    29     10     27   1
    30     11     28   1
    31     12     29   1
    32     13     30   1
    33     15     31   1
    34     15     32   1
    35     15     33   1
    36     17     34   1
    37     18     35   1
    38     19     36   1
    39     20     37   1
    40     38     39   2
    41     39     40   1
    42     40     41   2
    43     41     42   1
    44     42     43   2
    45     43     38   1
    46     40     44   1
    47     41     45   1
    48     43     46   1
    49     21     38   1
