# Produced with molli package
@<TRIPOS>MOLECULE
E_2_N
45 48 0 0 0
SMALL
USER_CHARGES

@<TRIPOS>ATOM
     1 C      -3.739620     4.402746    -1.103402 C          1 UNL1 0.000
     2 C      -4.354893     3.256093    -1.596864 C          1 UNL1 0.000
     3 C      -3.704328     2.014797    -1.513253 C          1 UNL1 0.000
     4 C      -2.438763     1.886503    -0.913333 C          1 UNL1 0.000
     5 C      -1.831587     3.068341    -0.449382 C          1 UNL1 0.000
     6 C      -2.479679     4.304641    -0.523533 C          1 UNL1 0.000
     7 N      -1.770315     0.609649    -0.790416 N          1 UNL1 0.000
     8 C      -2.467210    -0.655687    -0.699525 C          1 UNL1 0.000
     9 C      -3.720154    -0.769265    -0.071913 C          1 UNL1 0.000
    10 C      -4.380324    -2.000454     0.017769 C          1 UNL1 0.000
    11 C      -3.790571    -3.151300    -0.496451 C          1 UNL1 0.000
    12 C      -2.538143    -3.073897    -1.095374 C          1 UNL1 0.000
    13 C      -1.885494    -1.841012    -1.193979 C          1 UNL1 0.000
    14 O      -4.298659     5.649848    -1.090443 O          1 UNL1 0.000
    15 C      -5.065612     5.970335    -2.245465 C          1 UNL1 0.000
    16 C      -0.327332     0.590549    -0.755196 C          1 UNL1 0.000
    17 C       0.376228     0.729436    -1.967391 C          1 UNL1 0.000
    18 C       1.770058     0.686369    -1.991102 C          1 UNL1 0.000
    19 C       2.480655     0.520938    -0.804403 C          1 UNL1 0.000
    20 C       1.800684     0.404459     0.409813 C          1 UNL1 0.000
    21 C       0.398455     0.434970     0.447898 C          1 UNL1 0.000
    22 H      -5.349158     3.290219    -2.030370 H          1 UNL1 0.000
    23 H      -4.205009     1.146328    -1.933171 H          1 UNL1 0.000
    24 H      -0.845459     3.046489     0.004506 H          1 UNL1 0.000
    25 H      -1.993209     5.192829    -0.130281 H          1 UNL1 0.000
    26 H      -4.187233     0.099170     0.385183 H          1 UNL1 0.000
    27 H      -5.351408    -2.058563     0.502707 H          1 UNL1 0.000
    28 H      -4.300539    -4.107989    -0.420989 H          1 UNL1 0.000
    29 H      -2.063826    -3.969921    -1.487008 H          1 UNL1 0.000
    30 H      -0.910978    -1.821540    -1.674670 H          1 UNL1 0.000
    31 H      -4.493287     5.789713    -3.161849 H          1 UNL1 0.000
    32 H      -5.299004     7.038720    -2.201091 H          1 UNL1 0.000
    33 H      -6.013830     5.425214    -2.259593 H          1 UNL1 0.000
    34 H      -0.175285     0.854296    -2.896504 H          1 UNL1 0.000
    35 H       2.299468     0.781255    -2.935699 H          1 UNL1 0.000
    36 H       3.567362     0.491622    -0.821496 H          1 UNL1 0.000
    37 H       2.370084     0.297369     1.330767 H          1 UNL1 0.000
    38 C      -0.255449     0.389561     1.748913 C          1 UNL1 0.000
    39 C      -0.709312    -0.793625     2.294811 C          1 UNL1 0.000
    40 S      -1.439194    -0.563359     3.826922 S          1 UNL1 0.000
    41 C      -1.132598     1.118534     3.783685 C          1 UNL1 0.000
    42 C      -0.486557     1.494912     2.627151 C          1 UNL1 0.000
    43 H      -0.667299    -1.785117     1.865094 H          1 UNL1 0.000
    44 H      -1.439522     1.751011     4.605239 H          1 UNL1 0.000
    45 H      -0.205725     2.518954     2.414413 H          1 UNL1 0.000
@<TRIPOS>BOND
     1      1      2   2
     2      2      3   1
     3      3      4   2
     4      4      5   1
     5      5      6   2
     6      6      1   1
     7      4      7   1
     8      7      8   1
     9      8      9   2
    10      9     10   1
    11     10     11   2
    12     11     12   1
    13     12     13   2
    14     13      8   1
    15     14     15   1
    16      1     14   1
    17     16     17   2
    18     17     18   1
    19     18     19   2
    20     19     20   1
    21     20     21   2
    22     21     16   1
    23      7     16   1
    24      2     22   1
    25      3     23   1
    26      5     24   1
    27      6     25   1
    28      9     26   1
    29     10     27   1
    30     11     28   1
    31     12     29   1
    32     13     30   1
    33     15     31   1
    34     15     32   1
    35     15     33   1
    36     17     34   1
    37     18     35   1
    38     19     36   1
    39     20     37   1
    40     38     39   2
    41     39     40   1
    42     40     41   1
    43     41     42   2
    44     42     38   1
    45     39     43   1
    46     41     44   1
    47     42     45   1
    48     21     38   1
