# Produced with molli package
@<TRIPOS>MOLECULE
E_2_S
53 56 0 0 0
SMALL
USER_CHARGES

@<TRIPOS>ATOM
     1 C      -3.809161     4.336053    -0.993699 C          1 UNL1 0.000
     2 C      -4.442765     3.190991    -1.464812 C          1 UNL1 0.000
     3 C      -3.771418     1.957293    -1.447132 C          1 UNL1 0.000
     4 C      -2.478272     1.828928    -0.911222 C          1 UNL1 0.000
     5 C      -1.846848     3.025509    -0.508313 C          1 UNL1 0.000
     6 C      -2.507954     4.257203    -0.522851 C          1 UNL1 0.000
     7 N      -1.799750     0.551950    -0.777978 N          1 UNL1 0.000
     8 C      -2.461327    -0.740041    -0.732624 C          1 UNL1 0.000
     9 C      -3.774426    -0.904953    -0.260712 C          1 UNL1 0.000
    10 C      -4.401402    -2.158940    -0.257042 C          1 UNL1 0.000
    11 C      -3.711647    -3.291244    -0.678024 C          1 UNL1 0.000
    12 C      -2.392307    -3.172211    -1.094282 C          1 UNL1 0.000
    13 C      -1.779543    -1.914565    -1.122841 C          1 UNL1 0.000
    14 O      -4.440049     5.542791    -0.882800 O          1 UNL1 0.000
    15 C      -4.880527     6.044137    -2.140970 C          1 UNL1 0.000
    16 C      -0.355586     0.560737    -0.676273 C          1 UNL1 0.000
    17 C       0.392856     0.656616    -1.867464 C          1 UNL1 0.000
    18 C       1.784820     0.637252    -1.835355 C          1 UNL1 0.000
    19 C       2.446027     0.536923    -0.614932 C          1 UNL1 0.000
    20 C       1.717471     0.461765     0.575866 C          1 UNL1 0.000
    21 C       0.310467     0.472826     0.573339 C          1 UNL1 0.000
    22 H      -5.468236     3.231637    -1.818460 H          1 UNL1 0.000
    23 H      -4.290990     1.097095    -1.858940 H          1 UNL1 0.000
    24 H      -0.826109     3.021616    -0.140103 H          1 UNL1 0.000
    25 H      -2.005028     5.146824    -0.154755 H          1 UNL1 0.000
    26 H      -4.331806    -0.061571     0.136790 H          1 UNL1 0.000
    27 H      -5.429437    -2.247678     0.085008 H          1 UNL1 0.000
    28 H      -4.196348    -4.263854    -0.670999 H          1 UNL1 0.000
    29 H      -1.834473    -4.052299    -1.403941 H          1 UNL1 0.000
    30 H      -0.749779    -1.872455    -1.467422 H          1 UNL1 0.000
    31 H      -4.043653     6.129767    -2.842499 H          1 UNL1 0.000
    32 H      -5.284658     7.047402    -1.973464 H          1 UNL1 0.000
    33 H      -5.680120     5.429191    -2.564255 H          1 UNL1 0.000
    34 H      -0.125135     0.728883    -2.821181 H          1 UNL1 0.000
    35 H       2.350331     0.699092    -2.761387 H          1 UNL1 0.000
    36 H       3.532845     0.526130    -0.586188 H          1 UNL1 0.000
    37 H       2.256307     0.404879     1.520143 H          1 UNL1 0.000
    38 C      -0.404103     0.460475     1.860495 C          1 UNL1 0.000
    39 C      -0.670982     1.661118     2.535411 C          1 UNL1 0.000
    40 C      -1.355139     1.668012     3.753163 C          1 UNL1 0.000
    41 C      -1.766379     0.467270     4.340444 C          1 UNL1 0.000
    42 C      -1.498835    -0.738397     3.682917 C          1 UNL1 0.000
    43 C      -0.820082    -0.738464     2.455332 C          1 UNL1 0.000
    44 C      -2.479239     0.540999     5.650985 C          1 UNL1 0.000
    45 C      -2.696058    -0.712934     6.457078 C          1 UNL1 0.000
    46 O      -2.891714     1.624013     6.060082 O          1 UNL1 0.000
    47 H      -0.354278     2.611241     2.112055 H          1 UNL1 0.000
    48 H      -1.564020     2.619832     4.238626 H          1 UNL1 0.000
    49 H      -1.817535    -1.693146     4.089199 H          1 UNL1 0.000
    50 H      -0.626497    -1.685523     1.954756 H          1 UNL1 0.000
    51 H      -2.650043    -0.454757     7.520167 H          1 UNL1 0.000
    52 H      -1.917349    -1.457089     6.281286 H          1 UNL1 0.000
    53 H      -3.679724    -1.128995     6.227306 H          1 UNL1 0.000
@<TRIPOS>BOND
     1      1      2   2
     2      2      3   1
     3      3      4   2
     4      4      5   1
     5      5      6   2
     6      6      1   1
     7      4      7   1
     8      7      8   1
     9      8      9   2
    10      9     10   1
    11     10     11   2
    12     11     12   1
    13     12     13   2
    14     13      8   1
    15     14     15   1
    16      1     14   1
    17     16     17   2
    18     17     18   1
    19     18     19   2
    20     19     20   1
    21     20     21   2
    22     21     16   1
    23      7     16   1
    24      2     22   1
    25      3     23   1
    26      5     24   1
    27      6     25   1
    28      9     26   1
    29     10     27   1
    30     11     28   1
    31     12     29   1
    32     13     30   1
    33     15     31   1
    34     15     32   1
    35     15     33   1
    36     17     34   1
    37     18     35   1
    38     19     36   1
    39     20     37   1
    40     38     39   2
    41     39     40   1
    42     40     41   2
    43     41     42   1
    44     42     43   2
    45     43     38   1
    46     41     44   1
    47     44     45   1
    48     44     46   2
    49     39     47   1
    50     40     48   1
    51     42     49   1
    52     43     50   1
    53     45     51   1
    54     45     52   1
    55     45     53   1
    56     21     38   1
