# Produced with molli package
@<TRIPOS>MOLECULE
E_2_K
50 53 0 0 0
SMALL
USER_CHARGES

@<TRIPOS>ATOM
     1 C      -3.648440     4.425397    -1.051761 C          1 UNL1 0.000
     2 C      -4.368764     3.286856    -1.399434 C          1 UNL1 0.000
     3 C      -3.762556     2.019870    -1.335762 C          1 UNL1 0.000
     4 C      -2.443547     1.854360    -0.880338 C          1 UNL1 0.000
     5 C      -1.730683     3.038530    -0.591358 C          1 UNL1 0.000
     6 C      -2.327228     4.300628    -0.650730 C          1 UNL1 0.000
     7 N      -1.813472     0.555485    -0.722656 N          1 UNL1 0.000
     8 C      -2.520344    -0.708493    -0.644920 C          1 UNL1 0.000
     9 C      -3.800509    -0.827361    -0.079108 C          1 UNL1 0.000
    10 C      -4.472634    -2.056942    -0.041215 C          1 UNL1 0.000
    11 C      -3.861277    -3.208004    -0.528680 C          1 UNL1 0.000
    12 C      -2.573709    -3.133177    -1.043998 C          1 UNL1 0.000
    13 C      -1.914768    -1.900357    -1.100311 C          1 UNL1 0.000
    14 O      -4.171135     5.686839    -1.014036 O          1 UNL1 0.000
    15 C      -4.897741     6.038537    -2.186476 C          1 UNL1 0.000
    16 C      -0.370105     0.511194    -0.618455 C          1 UNL1 0.000
    17 C       0.387185     0.571155    -1.805987 C          1 UNL1 0.000
    18 C       1.778239     0.528583    -1.763244 C          1 UNL1 0.000
    19 C       2.429373     0.439998    -0.536300 C          1 UNL1 0.000
    20 C       1.691904     0.394781     0.650439 C          1 UNL1 0.000
    21 C       0.285830     0.429520     0.636703 C          1 UNL1 0.000
    22 H      -5.410463     3.353872    -1.696719 H          1 UNL1 0.000
    23 H      -4.354016     1.166729    -1.654773 H          1 UNL1 0.000
    24 H      -0.688481     3.005661    -0.288123 H          1 UNL1 0.000
    25 H      -1.752999     5.183549    -0.384029 H          1 UNL1 0.000
    26 H      -4.291685     0.033209     0.366228 H          1 UNL1 0.000
    27 H      -5.473362    -2.113590     0.379836 H          1 UNL1 0.000
    28 H      -4.381587    -4.161678    -0.496312 H          1 UNL1 0.000
    29 H      -2.077510    -4.028960    -1.408772 H          1 UNL1 0.000
    30 H      -0.913790    -1.888858    -1.522972 H          1 UNL1 0.000
    31 H      -4.317235     5.827245    -3.091226 H          1 UNL1 0.000
    32 H      -5.081182     7.116887    -2.149634 H          1 UNL1 0.000
    33 H      -5.868643     5.535997    -2.217692 H          1 UNL1 0.000
    34 H      -0.122972     0.639940    -2.764197 H          1 UNL1 0.000
    35 H       2.351284     0.566029    -2.685985 H          1 UNL1 0.000
    36 H       3.515739     0.413751    -0.499740 H          1 UNL1 0.000
    37 H       2.223566     0.343941     1.599079 H          1 UNL1 0.000
    38 C      -0.441516     0.434028     1.916744 C          1 UNL1 0.000
    39 C      -0.815772     1.650028     2.521839 C          1 UNL1 0.000
    40 C      -1.513138     1.671437     3.729788 C          1 UNL1 0.000
    41 C      -1.825363     0.457633     4.338708 C          1 UNL1 0.000
    42 C      -1.456686    -0.767190     3.779222 C          1 UNL1 0.000
    43 C      -0.760380    -0.770807     2.567604 C          1 UNL1 0.000
    44 N      -2.549252     0.471064     5.592764 N          1 UNL1 0.000
    45 O      -3.672295    -0.046157     5.602291 O          1 UNL1 0.000
    46 O      -1.985831     1.001906     6.560878 O          1 UNL1 0.000
    47 H      -0.567878     2.595660     2.045340 H          1 UNL1 0.000
    48 H      -1.807887     2.619392     4.172823 H          1 UNL1 0.000
    49 H      -1.701750    -1.705428     4.269603 H          1 UNL1 0.000
    50 H      -0.473294    -1.720581     2.119539 H          1 UNL1 0.000
@<TRIPOS>BOND
     1      1      2   2
     2      2      3   1
     3      3      4   2
     4      4      5   1
     5      5      6   2
     6      6      1   1
     7      4      7   1
     8      7      8   1
     9      8      9   2
    10      9     10   1
    11     10     11   2
    12     11     12   1
    13     12     13   2
    14     13      8   1
    15     14     15   1
    16      1     14   1
    17     16     17   2
    18     17     18   1
    19     18     19   2
    20     19     20   1
    21     20     21   2
    22     21     16   1
    23      7     16   1
    24      2     22   1
    25      3     23   1
    26      5     24   1
    27      6     25   1
    28      9     26   1
    29     10     27   1
    30     11     28   1
    31     12     29   1
    32     13     30   1
    33     15     31   1
    34     15     32   1
    35     15     33   1
    36     17     34   1
    37     18     35   1
    38     19     36   1
    39     20     37   1
    40     38     39   2
    41     39     40   1
    42     40     41   2
    43     41     42   1
    44     42     43   2
    45     43     38   1
    46     44     45   2
    47     44     46   1
    48     41     44   1
    49     39     47   1
    50     40     48   1
    51     42     49   1
    52     43     50   1
    53     21     38   1
