# Produced with molli package
@<TRIPOS>MOLECULE
E_2_L
52 56 0 0 0
SMALL
USER_CHARGES

@<TRIPOS>ATOM
     1 C      -3.853453     4.341465    -1.043741 C          1 UNL1 0.000
     2 C      -4.506190     3.177505    -1.437122 C          1 UNL1 0.000
     3 C      -3.827500     1.947366    -1.416577 C          1 UNL1 0.000
     4 C      -2.503368     1.843208    -0.957263 C          1 UNL1 0.000
     5 C      -1.853671     3.055911    -0.642911 C          1 UNL1 0.000
     6 C      -2.523233     4.282890    -0.656801 C          1 UNL1 0.000
     7 N      -1.816053     0.573427    -0.808167 N          1 UNL1 0.000
     8 C      -2.473503    -0.713773    -0.676890 C          1 UNL1 0.000
     9 C      -3.745797    -0.860052    -0.099616 C          1 UNL1 0.000
    10 C      -4.369559    -2.111882    -0.008098 C          1 UNL1 0.000
    11 C      -3.715169    -3.257267    -0.450346 C          1 UNL1 0.000
    12 C      -2.433851    -3.153217    -0.976337 C          1 UNL1 0.000
    13 C      -1.824667    -1.898680    -1.089056 C          1 UNL1 0.000
    14 O      -4.474504     5.552380    -0.922362 O          1 UNL1 0.000
    15 C      -5.111305     5.978117    -2.122235 C          1 UNL1 0.000
    16 C      -0.370308     0.585418    -0.737064 C          1 UNL1 0.000
    17 C       0.352592     0.675949    -1.944520 C          1 UNL1 0.000
    18 C       1.745080     0.659338    -1.942162 C          1 UNL1 0.000
    19 C       2.432398     0.566044    -0.735751 C          1 UNL1 0.000
    20 C       1.729266     0.492436     0.470213 C          1 UNL1 0.000
    21 C       0.322331     0.501315     0.498399 C          1 UNL1 0.000
    22 H      -5.552154     3.195422    -1.725905 H          1 UNL1 0.000
    23 H      -4.366814     1.068715    -1.758709 H          1 UNL1 0.000
    24 H      -0.811266     3.068027    -0.339204 H          1 UNL1 0.000
    25 H      -2.002765     5.186203    -0.351768 H          1 UNL1 0.000
    26 H      -4.265704    -0.003020     0.318693 H          1 UNL1 0.000
    27 H      -5.363625    -2.189389     0.424402 H          1 UNL1 0.000
    28 H      -4.195354    -4.228724    -0.370523 H          1 UNL1 0.000
    29 H      -1.902113    -4.043504    -1.301709 H          1 UNL1 0.000
    30 H      -0.825329    -1.864977    -1.514417 H          1 UNL1 0.000
    31 H      -4.391874     6.033379    -2.946090 H          1 UNL1 0.000
    32 H      -5.502552     6.985329    -1.947516 H          1 UNL1 0.000
    33 H      -5.956553     5.336011    -2.385568 H          1 UNL1 0.000
    34 H      -0.185919     0.740149    -2.887246 H          1 UNL1 0.000
    35 H       2.290618     0.716132    -2.880269 H          1 UNL1 0.000
    36 H       3.519438     0.556330    -0.729236 H          1 UNL1 0.000
    37 H       2.286681     0.437203     1.403875 H          1 UNL1 0.000
    38 C      -0.362153     0.473113     1.803425 C          1 UNL1 0.000
    39 C      -0.788430     1.664348     2.410919 C          1 UNL1 0.000
    40 C      -1.442137     1.681480     3.647833 C          1 UNL1 0.000
    41 C      -1.632111     0.455316     4.286900 C          1 UNL1 0.000
    42 C      -1.204473    -0.752761     3.739113 C          1 UNL1 0.000
    43 C      -0.566909    -0.742573     2.480780 C          1 UNL1 0.000
    44 N      -2.227249     0.168806     5.494546 N          1 UNL1 0.000
    45 C      -2.170917    -1.177679     5.739799 C          1 UNL1 0.000
    46 C      -1.546057    -1.774189     4.668618 C          1 UNL1 0.000
    47 H      -0.613429     2.616198     1.916194 H          1 UNL1 0.000
    48 H      -1.778605     2.615159     4.085330 H          1 UNL1 0.000
    49 H      -0.239223    -1.677927     2.035923 H          1 UNL1 0.000
    50 H      -2.637664     0.858593     6.107099 H          1 UNL1 0.000
    51 H      -2.581568    -1.592166     6.650551 H          1 UNL1 0.000
    52 H      -1.351328    -2.832838     4.560556 H          1 UNL1 0.000
@<TRIPOS>BOND
     1      1      2   2
     2      2      3   1
     3      3      4   2
     4      4      5   1
     5      5      6   2
     6      6      1   1
     7      4      7   1
     8      7      8   1
     9      8      9   2
    10      9     10   1
    11     10     11   2
    12     11     12   1
    13     12     13   2
    14     13      8   1
    15     14     15   1
    16      1     14   1
    17     16     17   2
    18     17     18   1
    19     18     19   2
    20     19     20   1
    21     20     21   2
    22     21     16   1
    23      7     16   1
    24      2     22   1
    25      3     23   1
    26      5     24   1
    27      6     25   1
    28      9     26   1
    29     10     27   1
    30     11     28   1
    31     12     29   1
    32     13     30   1
    33     15     31   1
    34     15     32   1
    35     15     33   1
    36     17     34   1
    37     18     35   1
    38     19     36   1
    39     20     37   1
    40     38     39   2
    41     39     40   1
    42     40     41   2
    43     41     42   1
    44     42     43   2
    45     43     38   1
    46     41     44   1
    47     44     45   1
    48     45     46   2
    49     46     42   1
    50     39     47   1
    51     40     48   1
    52     43     49   1
    53     44     50   1
    54     45     51   1
    55     46     52   1
    56     21     38   1
