# Produced with molli package
@<TRIPOS>MOLECULE
E_2_P
52 55 0 0 0
SMALL
USER_CHARGES

@<TRIPOS>ATOM
     1 C      -3.771772     4.193808    -0.554253 C          1 UNL1 0.000
     2 C      -4.328785     3.072454     0.051203 C          1 UNL1 0.000
     3 C      -3.661627     1.844210    -0.006308 C          1 UNL1 0.000
     4 C      -2.424662     1.717364    -0.664126 C          1 UNL1 0.000
     5 C      -1.857673     2.882300    -1.216887 C          1 UNL1 0.000
     6 C      -2.522962     4.111259    -1.161620 C          1 UNL1 0.000
     7 N      -1.734459     0.449444    -0.727854 N          1 UNL1 0.000
     8 C      -2.421793    -0.805794    -0.936347 C          1 UNL1 0.000
     9 C      -3.665302    -0.870594    -1.590920 C          1 UNL1 0.000
    10 C      -4.333640    -2.087022    -1.769573 C          1 UNL1 0.000
    11 C      -3.764098    -3.271057    -1.312305 C          1 UNL1 0.000
    12 C      -2.521584    -3.240870    -0.689104 C          1 UNL1 0.000
    13 C      -1.856829    -2.023415    -0.510827 C          1 UNL1 0.000
    14 O      -4.455332     5.374731    -0.458093 O          1 UNL1 0.000
    15 C      -4.800165     5.885458    -1.745868 C          1 UNL1 0.000
    16 C      -0.292650     0.453052    -0.643457 C          1 UNL1 0.000
    17 C       0.448239     0.302377    -1.833234 C          1 UNL1 0.000
    18 C       1.841149     0.334931    -1.815033 C          1 UNL1 0.000
    19 C       2.512908     0.503606    -0.608351 C          1 UNL1 0.000
    20 C       1.793315     0.629149     0.582630 C          1 UNL1 0.000
    21 C       0.385997     0.603695     0.592287 C          1 UNL1 0.000
    22 H      -5.280859     3.149210     0.568217 H          1 UNL1 0.000
    23 H      -4.103592     0.986980     0.496498 H          1 UNL1 0.000
    24 H      -0.889182     2.846409    -1.707964 H          1 UNL1 0.000
    25 H      -2.049565     4.993455    -1.581154 H          1 UNL1 0.000
    26 H      -4.128294     0.028933    -1.987978 H          1 UNL1 0.000
    27 H      -5.298621    -2.104977    -2.269053 H          1 UNL1 0.000
    28 H      -4.284371    -4.215451    -1.446420 H          1 UNL1 0.000
    29 H      -2.065958    -4.161681    -0.334903 H          1 UNL1 0.000
    30 H      -0.891961    -2.040560    -0.013064 H          1 UNL1 0.000
    31 H      -3.915821     6.221233    -2.296865 H          1 UNL1 0.000
    32 H      -5.449736     6.753537    -1.598207 H          1 UNL1 0.000
    33 H      -5.356437     5.142327    -2.328581 H          1 UNL1 0.000
    34 H      -0.075377     0.176698    -2.778201 H          1 UNL1 0.000
    35 H       2.399173     0.231192    -2.741787 H          1 UNL1 0.000
    36 H       3.599584     0.528647    -0.589582 H          1 UNL1 0.000
    37 H       2.337753     0.740375     1.518869 H          1 UNL1 0.000
    38 C      -0.316040     0.658955     1.884428 C          1 UNL1 0.000
    39 C      -0.444909    -0.500497     2.669623 C          1 UNL1 0.000
    40 C      -1.121615    -0.470226     3.891046 C          1 UNL1 0.000
    41 C      -1.659519     0.729618     4.347073 C          1 UNL1 0.000
    42 C      -1.554486     1.886981     3.581757 C          1 UNL1 0.000
    43 C      -0.869906     1.854867     2.364293 C          1 UNL1 0.000
    44 O      -2.364733     0.790569     5.517666 O          1 UNL1 0.000
    45 C      -1.489406     0.669711     6.638253 C          1 UNL1 0.000
    46 H      -0.030326    -1.443071     2.319272 H          1 UNL1 0.000
    47 H      -1.240596    -1.383118     4.466105 H          1 UNL1 0.000
    48 H      -2.005203     2.812278     3.927752 H          1 UNL1 0.000
    49 H      -0.791710     2.767183     1.777310 H          1 UNL1 0.000
    50 H      -2.072465     0.875130     7.541018 H          1 UNL1 0.000
    51 H      -0.675317     1.401870     6.587951 H          1 UNL1 0.000
    52 H      -1.087085    -0.345348     6.720263 H          1 UNL1 0.000
@<TRIPOS>BOND
     1      1      2   2
     2      2      3   1
     3      3      4   2
     4      4      5   1
     5      5      6   2
     6      6      1   1
     7      4      7   1
     8      7      8   1
     9      8      9   2
    10      9     10   1
    11     10     11   2
    12     11     12   1
    13     12     13   2
    14     13      8   1
    15     14     15   1
    16      1     14   1
    17     16     17   2
    18     17     18   1
    19     18     19   2
    20     19     20   1
    21     20     21   2
    22     21     16   1
    23      7     16   1
    24      2     22   1
    25      3     23   1
    26      5     24   1
    27      6     25   1
    28      9     26   1
    29     10     27   1
    30     11     28   1
    31     12     29   1
    32     13     30   1
    33     15     31   1
    34     15     32   1
    35     15     33   1
    36     17     34   1
    37     18     35   1
    38     19     36   1
    39     20     37   1
    40     38     39   2
    41     39     40   1
    42     40     41   2
    43     41     42   1
    44     42     43   2
    45     43     38   1
    46     44     45   1
    47     41     44   1
    48     39     46   1
    49     40     47   1
    50     42     48   1
    51     43     49   1
    52     45     50   1
    53     45     51   1
    54     45     52   1
    55     21     38   1
