# Produced with molli package
@<TRIPOS>MOLECULE
E_2_T
51 54 0 0 0
SMALL
USER_CHARGES

@<TRIPOS>ATOM
     1 C      -3.921750     4.114207    -0.535097 C          1 UNL1 0.000
     2 C      -4.390393     3.010304     0.173555 C          1 UNL1 0.000
     3 C      -3.696683     1.796815     0.128516 C          1 UNL1 0.000
     4 C      -2.512738     1.666784    -0.616545 C          1 UNL1 0.000
     5 C      -2.021717     2.811728    -1.269530 C          1 UNL1 0.000
     6 C      -2.720618     4.024054    -1.233690 C          1 UNL1 0.000
     7 N      -1.808056     0.409626    -0.684481 N          1 UNL1 0.000
     8 C      -2.489399    -0.849459    -0.887319 C          1 UNL1 0.000
     9 C      -3.760032    -0.914676    -1.488806 C          1 UNL1 0.000
    10 C      -4.423079    -2.133968    -1.665643 C          1 UNL1 0.000
    11 C      -3.822611    -3.320525    -1.257813 C          1 UNL1 0.000
    12 C      -2.555803    -3.289109    -0.685090 C          1 UNL1 0.000
    13 C      -1.895737    -2.068516    -0.508938 C          1 UNL1 0.000
    14 O      -4.677512     5.251143    -0.447773 O          1 UNL1 0.000
    15 C      -4.761894     5.986734    -1.666034 C          1 UNL1 0.000
    16 C      -0.366395     0.434972    -0.619653 C          1 UNL1 0.000
    17 C       0.363770     0.285934    -1.816075 C          1 UNL1 0.000
    18 C       1.756366     0.340864    -1.813754 C          1 UNL1 0.000
    19 C       2.438880     0.533035    -0.616644 C          1 UNL1 0.000
    20 C       1.730556     0.656050     0.581017 C          1 UNL1 0.000
    21 C       0.324173     0.604055     0.606634 C          1 UNL1 0.000
    22 H      -5.305148     3.087778     0.754506 H          1 UNL1 0.000
    23 H      -4.075691     0.952581     0.700031 H          1 UNL1 0.000
    24 H      -1.094915     2.768245    -1.834869 H          1 UNL1 0.000
    25 H      -2.299472     4.882039    -1.747240 H          1 UNL1 0.000
    26 H      -4.249908    -0.012586    -1.846074 H          1 UNL1 0.000
    27 H      -5.407671    -2.151567    -2.125242 H          1 UNL1 0.000
    28 H      -4.338159    -4.267597    -1.391111 H          1 UNL1 0.000
    29 H      -2.076954    -4.212072    -0.369177 H          1 UNL1 0.000
    30 H      -0.911086    -2.084679    -0.051146 H          1 UNL1 0.000
    31 H      -3.840502     6.546503    -1.853483 H          1 UNL1 0.000
    32 H      -5.575657     6.711029    -1.562650 H          1 UNL1 0.000
    33 H      -5.001587     5.333816    -2.513239 H          1 UNL1 0.000
    34 H      -0.167791     0.141786    -2.753859 H          1 UNL1 0.000
    35 H       2.305963     0.235744    -2.745330 H          1 UNL1 0.000
    36 H       3.525099     0.575721    -0.609738 H          1 UNL1 0.000
    37 H       2.282423     0.781649     1.511183 H          1 UNL1 0.000
    38 C      -0.362059     0.639028     1.907337 C          1 UNL1 0.000
    39 C      -0.894602     1.826081     2.425226 C          1 UNL1 0.000
    40 C      -1.556573     1.836031     3.657793 C          1 UNL1 0.000
    41 C      -1.680573     0.661558     4.407998 C          1 UNL1 0.000
    42 C      -1.145829    -0.525984     3.900386 C          1 UNL1 0.000
    43 C      -0.488447    -0.533848     2.668083 C          1 UNL1 0.000
    44 C      -2.422050     0.652723     5.711261 C          1 UNL1 0.000
    45 H      -0.815411     2.751139     1.858236 H          1 UNL1 0.000
    46 H      -1.979787     2.769525     4.021180 H          1 UNL1 0.000
    47 H      -1.241977    -1.455161     4.457060 H          1 UNL1 0.000
    48 H      -0.081109    -1.470407     2.294219 H          1 UNL1 0.000
    49 H      -1.884351     0.053955     6.454090 H          1 UNL1 0.000
    50 H      -3.422372     0.231616     5.569673 H          1 UNL1 0.000
    51 H      -2.524454     1.663920     6.118067 H          1 UNL1 0.000
@<TRIPOS>BOND
     1      1      2   2
     2      2      3   1
     3      3      4   2
     4      4      5   1
     5      5      6   2
     6      6      1   1
     7      4      7   1
     8      7      8   1
     9      8      9   2
    10      9     10   1
    11     10     11   2
    12     11     12   1
    13     12     13   2
    14     13      8   1
    15     14     15   1
    16      1     14   1
    17     16     17   2
    18     17     18   1
    19     18     19   2
    20     19     20   1
    21     20     21   2
    22     21     16   1
    23      7     16   1
    24      2     22   1
    25      3     23   1
    26      5     24   1
    27      6     25   1
    28      9     26   1
    29     10     27   1
    30     11     28   1
    31     12     29   1
    32     13     30   1
    33     15     31   1
    34     15     32   1
    35     15     33   1
    36     17     34   1
    37     18     35   1
    38     19     36   1
    39     20     37   1
    40     38     39   2
    41     39     40   1
    42     40     41   2
    43     41     42   1
    44     42     43   2
    45     43     38   1
    46     41     44   1
    47     39     45   1
    48     40     46   1
    49     42     47   1
    50     43     48   1
    51     44     49   1
    52     44     50   1
    53     44     51   1
    54     21     38   1
