# Produced with molli package
@<TRIPOS>MOLECULE
E_3_M
61 66 0 0 0
SMALL
USER_CHARGES

@<TRIPOS>ATOM
     1 C      -5.759868     4.426681     0.588920 C          1 UNL1 0.000
     2 C      -6.527784     3.292985     0.818839 C          1 UNL1 0.000
     3 C      -5.927486     2.020319     0.822391 C          1 UNL1 0.000
     4 C      -4.565420     1.839448     0.531702 C          1 UNL1 0.000
     5 C      -3.814354     3.031811     0.362254 C          1 UNL1 0.000
     6 C      -4.394020     4.305564     0.407392 C          1 UNL1 0.000
     7 N      -3.904657     0.538269     0.455830 N          1 UNL1 0.000
     8 C      -4.535066    -0.777362     0.397231 C          1 UNL1 0.000
     9 C      -5.863896    -0.998694     0.008647 C          1 UNL1 0.000
    10 C      -6.442324    -2.279461     0.041196 C          1 UNL1 0.000
    11 C      -5.684135    -3.391203     0.389942 C          1 UNL1 0.000
    12 C      -4.342309    -3.225919     0.690413 C          1 UNL1 0.000
    13 C      -3.784331    -1.942727     0.696652 C          1 UNL1 0.000
    14 O      -6.309036     5.676289     0.647233 O          1 UNL1 0.000
    15 C      -6.977777     5.986333    -0.575512 C          1 UNL1 0.000
    16 C      -2.445709     0.553729    -2.053479 C          1 UNL1 0.000
    17 C      -1.780367     0.568829    -3.277198 C          1 UNL1 0.000
    18 C      -0.398690     0.580719    -3.296350 C          1 UNL1 0.000
    19 C       0.304827     0.576288    -2.091672 C          1 UNL1 0.000
    20 C      -0.342633     0.557917    -0.827176 C          1 UNL1 0.000
    21 C      -1.755150     0.548583    -0.814418 C          1 UNL1 0.000
    22 C       0.374009     0.549912     0.414103 C          1 UNL1 0.000
    23 C      -0.316135     0.531585     1.669340 C          1 UNL1 0.000
    24 C      -1.728762     0.546144     1.685109 C          1 UNL1 0.000
    25 C      -2.434540     0.549463     0.442263 C          1 UNL1 0.000
    26 C       0.356443     0.488591     2.919598 C          1 UNL1 0.000
    27 C      -0.324007     0.460667     4.137577 C          1 UNL1 0.000
    28 C      -1.705830     0.483770     4.146610 C          1 UNL1 0.000
    29 C      -2.394876     0.529509     2.937346 C          1 UNL1 0.000
    30 H      -7.589572     3.390622     1.026425 H          1 UNL1 0.000
    31 H      -6.565434     1.192066     1.104074 H          1 UNL1 0.000
    32 H      -2.739832     3.004106     0.201538 H          1 UNL1 0.000
    33 H      -3.772944     5.189910     0.299026 H          1 UNL1 0.000
    34 H      -6.487034    -0.196697    -0.367443 H          1 UNL1 0.000
    35 H      -7.489361    -2.406291    -0.222748 H          1 UNL1 0.000
    36 H      -6.129319    -4.382090     0.405981 H          1 UNL1 0.000
    37 H      -3.720089    -4.085471     0.926379 H          1 UNL1 0.000
    38 H      -2.729043    -1.884916     0.949344 H          1 UNL1 0.000
    39 H      -6.305386     5.889724    -1.435753 H          1 UNL1 0.000
    40 H      -7.307104     7.028829    -0.521809 H          1 UNL1 0.000
    41 H      -7.864558     5.358263    -0.710107 H          1 UNL1 0.000
    42 H      -3.534323     0.550218    -2.073716 H          1 UNL1 0.000
    43 H      -2.345225     0.572721    -4.205170 H          1 UNL1 0.000
    44 H       0.137535     0.593309    -4.241267 H          1 UNL1 0.000
    45 H       1.391277     0.587813    -2.157005 H          1 UNL1 0.000
    46 H       1.443852     0.466500     2.962085 H          1 UNL1 0.000
    47 H       0.229674     0.419465     5.071547 H          1 UNL1 0.000
    48 H      -2.253083     0.461344     5.084921 H          1 UNL1 0.000
    49 H      -3.483121     0.538631     2.979288 H          1 UNL1 0.000
    50 C       1.855302     0.565473     0.395139 C          1 UNL1 0.000
    51 C       2.556023     1.781040     0.455029 C          1 UNL1 0.000
    52 C       3.952771     1.801504     0.414737 C          1 UNL1 0.000
    53 C       4.668401     0.604747     0.312860 C          1 UNL1 0.000
    54 C       3.981396    -0.611997     0.258413 C          1 UNL1 0.000
    55 C       2.584414    -0.630813     0.300939 C          1 UNL1 0.000
    56 C       6.100412     0.625750     0.258895 C          1 UNL1 0.000
    57 N       7.260536     0.643211     0.212213 N          1 UNL1 0.000
    58 H       2.009140     2.719940     0.529003 H          1 UNL1 0.000
    59 H       4.473359     2.756395     0.459112 H          1 UNL1 0.000
    60 H       4.525029    -1.551595     0.178326 H          1 UNL1 0.000
    61 H       2.060118    -1.584046     0.252291 H          1 UNL1 0.000
@<TRIPOS>BOND
     1      1      2   2
     2      2      3   1
     3      3      4   2
     4      4      5   1
     5      5      6   2
     6      6      1   1
     7      4      7   1
     8      7      8   1
     9      8      9   2
    10      9     10   1
    11     10     11   2
    12     11     12   1
    13     12     13   2
    14     13      8   1
    15     14     15   1
    16      1     14   1
    17     16     17   2
    18     17     18   1
    19     18     19   2
    20     19     20   1
    21     20     21   2
    22     21     16   1
    23     20     22   1
    24     22     23   2
    25     23     24   1
    26     24     25   2
    27     25     21   1
    28     23     26   1
    29     26     27   2
    30     27     28   1
    31     28     29   2
    32     29     24   1
    33      7     25   1
    34      2     30   1
    35      3     31   1
    36      5     32   1
    37      6     33   1
    38      9     34   1
    39     10     35   1
    40     11     36   1
    41     12     37   1
    42     13     38   1
    43     15     39   1
    44     15     40   1
    45     15     41   1
    46     16     42   1
    47     17     43   1
    48     18     44   1
    49     19     45   1
    50     26     46   1
    51     27     47   1
    52     28     48   1
    53     29     49   1
    54     50     51   2
    55     51     52   1
    56     52     53   2
    57     53     54   1
    58     54     55   2
    59     55     50   1
    60     56     57   3
    61     53     56   1
    62     51     58   1
    63     52     59   1
    64     54     60   1
    65     55     61   1
    66     22     50   1
