# Produced with molli package
@<TRIPOS>MOLECULE
E_3_S
65 70 0 0 0
SMALL
USER_CHARGES

@<TRIPOS>ATOM
     1 C      -5.817634     4.363136     0.295165 C          1 UNL1 0.000
     2 C      -6.463577     3.234476    -0.199003 C          1 UNL1 0.000
     3 C      -5.808074     1.993172    -0.205974 C          1 UNL1 0.000
     4 C      -4.517346     1.836815     0.329068 C          1 UNL1 0.000
     5 C      -3.874006     3.008017     0.778670 C          1 UNL1 0.000
     6 C      -4.519633     4.249679     0.776563 C          1 UNL1 0.000
     7 N      -3.857516     0.545113     0.401976 N          1 UNL1 0.000
     8 C      -4.549960    -0.728640     0.502361 C          1 UNL1 0.000
     9 C      -5.845929    -0.842047     1.036442 C          1 UNL1 0.000
    10 C      -6.509163    -2.074641     1.099381 C          1 UNL1 0.000
    11 C      -5.874633    -3.234890     0.669343 C          1 UNL1 0.000
    12 C      -4.573545    -3.164759     0.188009 C          1 UNL1 0.000
    13 C      -3.921824    -1.929071     0.107745 C          1 UNL1 0.000
    14 O      -6.414021     5.584266     0.436837 O          1 UNL1 0.000
    15 C      -7.077604     6.050830    -0.733110 C          1 UNL1 0.000
    16 C      -2.354214     0.581407    -2.076948 C          1 UNL1 0.000
    17 C      -1.665990     0.582269    -3.288038 C          1 UNL1 0.000
    18 C      -0.284274     0.562524    -3.281537 C          1 UNL1 0.000
    19 C       0.396584     0.541216    -2.064078 C          1 UNL1 0.000
    20 C      -0.274929     0.534634    -0.812302 C          1 UNL1 0.000
    21 C      -1.688186     0.555898    -0.824754 C          1 UNL1 0.000
    22 C       0.418737     0.503987     0.440263 C          1 UNL1 0.000
    23 C      -0.295676     0.489287     1.681357 C          1 UNL1 0.000
    24 C      -1.709151     0.487695     1.670591 C          1 UNL1 0.000
    25 C      -2.393637     0.527300     0.416590 C          1 UNL1 0.000
    26 C       0.355875     0.485637     2.943911 C          1 UNL1 0.000
    27 C      -0.343988     0.484773     4.150604 C          1 UNL1 0.000
    28 C      -1.725575     0.478542     4.135114 C          1 UNL1 0.000
    29 C      -2.394433     0.475980     2.913060 C          1 UNL1 0.000
    30 H      -7.488781     3.282971    -0.550693 H          1 UNL1 0.000
    31 H      -6.335811     1.145983    -0.635586 H          1 UNL1 0.000
    32 H      -2.862643     2.977973     1.174140 H          1 UNL1 0.000
    33 H      -4.004747     5.124664     1.164401 H          1 UNL1 0.000
    34 H      -6.361125     0.026146     1.437344 H          1 UNL1 0.000
    35 H      -7.520175    -2.125198     1.495483 H          1 UNL1 0.000
    36 H      -6.386320    -4.192066     0.722167 H          1 UNL1 0.000
    37 H      -4.058499    -4.067935    -0.129129 H          1 UNL1 0.000
    38 H      -2.907729    -1.927798    -0.282519 H          1 UNL1 0.000
    39 H      -6.355160     6.229527    -1.536056 H          1 UNL1 0.000
    40 H      -7.550664     7.006077    -0.484175 H          1 UNL1 0.000
    41 H      -7.868803     5.374492    -1.067766 H          1 UNL1 0.000
    42 H      -3.442075     0.590867    -2.118383 H          1 UNL1 0.000
    43 H      -2.213486     0.596896    -4.226220 H          1 UNL1 0.000
    44 H       0.269499     0.563867    -4.216314 H          1 UNL1 0.000
    45 H       1.484202     0.527732    -2.108266 H          1 UNL1 0.000
    46 H       1.442724     0.493813     3.005687 H          1 UNL1 0.000
    47 H       0.194838     0.492439     5.094071 H          1 UNL1 0.000
    48 H      -2.288209     0.481567     5.064485 H          1 UNL1 0.000
    49 H      -3.482843     0.480083     2.938485 H          1 UNL1 0.000
    50 C       1.900208     0.486028     0.452650 C          1 UNL1 0.000
    51 C       2.631419     1.680640     0.471880 C          1 UNL1 0.000
    52 C       4.029300     1.657769     0.485918 C          1 UNL1 0.000
    53 C       4.730034     0.441658     0.479511 C          1 UNL1 0.000
    54 C       4.003234    -0.753082     0.462755 C          1 UNL1 0.000
    55 C       2.602304    -0.728616     0.448730 C          1 UNL1 0.000
    56 C       6.226178     0.505310     0.495497 C          1 UNL1 0.000
    57 C       7.065019    -0.744520     0.400418 C          1 UNL1 0.000
    58 O       6.778043     1.601954     0.578535 O          1 UNL1 0.000
    59 H       2.113751     2.638359     0.477465 H          1 UNL1 0.000
    60 H       4.569592     2.603453     0.502052 H          1 UNL1 0.000
    61 H       4.481872    -1.725626     0.465282 H          1 UNL1 0.000
    62 H       2.053045    -1.669207     0.436727 H          1 UNL1 0.000
    63 H       7.675265    -0.685979    -0.505627 H          1 UNL1 0.000
    64 H       6.494110    -1.668841     0.357967 H          1 UNL1 0.000
    65 H       7.717094    -0.794177     1.277448 H          1 UNL1 0.000
@<TRIPOS>BOND
     1      1      2   2
     2      2      3   1
     3      3      4   2
     4      4      5   1
     5      5      6   2
     6      6      1   1
     7      4      7   1
     8      7      8   1
     9      8      9   2
    10      9     10   1
    11     10     11   2
    12     11     12   1
    13     12     13   2
    14     13      8   1
    15     14     15   1
    16      1     14   1
    17     16     17   2
    18     17     18   1
    19     18     19   2
    20     19     20   1
    21     20     21   2
    22     21     16   1
    23     20     22   1
    24     22     23   2
    25     23     24   1
    26     24     25   2
    27     25     21   1
    28     23     26   1
    29     26     27   2
    30     27     28   1
    31     28     29   2
    32     29     24   1
    33      7     25   1
    34      2     30   1
    35      3     31   1
    36      5     32   1
    37      6     33   1
    38      9     34   1
    39     10     35   1
    40     11     36   1
    41     12     37   1
    42     13     38   1
    43     15     39   1
    44     15     40   1
    45     15     41   1
    46     16     42   1
    47     17     43   1
    48     18     44   1
    49     19     45   1
    50     26     46   1
    51     27     47   1
    52     28     48   1
    53     29     49   1
    54     50     51   2
    55     51     52   1
    56     52     53   2
    57     53     54   1
    58     54     55   2
    59     55     50   1
    60     53     56   1
    61     56     57   1
    62     56     58   2
    63     51     59   1
    64     52     60   1
    65     54     61   1
    66     55     62   1
    67     57     63   1
    68     57     64   1
    69     57     65   1
    70     22     50   1
