# Produced with molli package
@<TRIPOS>MOLECULE
E_3_P
64 69 0 0 0
SMALL
USER_CHARGES

@<TRIPOS>ATOM
     1 C      -5.738505     4.419998     0.335069 C          1 UNL1 0.000
     2 C      -6.428309     3.300094    -0.119775 C          1 UNL1 0.000
     3 C      -5.824751     2.030717    -0.079828 C          1 UNL1 0.000
     4 C      -4.541659     1.839408     0.459613 C          1 UNL1 0.000
     5 C      -3.867025     3.000479     0.896960 C          1 UNL1 0.000
     6 C      -4.457891     4.266796     0.846591 C          1 UNL1 0.000
     7 N      -3.893610     0.539177     0.525697 N          1 UNL1 0.000
     8 C      -4.572325    -0.746806     0.527594 C          1 UNL1 0.000
     9 C      -5.899747    -0.906984     0.957850 C          1 UNL1 0.000
    10 C      -6.543416    -2.152419     0.907393 C          1 UNL1 0.000
    11 C      -5.859033    -3.282346     0.471683 C          1 UNL1 0.000
    12 C      -4.526315    -3.171435     0.101986 C          1 UNL1 0.000
    13 C      -3.895264    -1.923375     0.133035 C          1 UNL1 0.000
    14 O      -6.243728     5.689117     0.366923 O          1 UNL1 0.000
    15 C      -6.995647     6.050684    -0.786284 C          1 UNL1 0.000
    16 C      -2.392005     0.607085    -1.955629 C          1 UNL1 0.000
    17 C      -1.705941     0.610392    -3.167335 C          1 UNL1 0.000
    18 C      -0.324313     0.590405    -3.161381 C          1 UNL1 0.000
    19 C       0.356583     0.569051    -1.944055 C          1 UNL1 0.000
    20 C      -0.312806     0.559299    -0.691116 C          1 UNL1 0.000
    21 C      -1.725412     0.575231    -0.703444 C          1 UNL1 0.000
    22 C       0.380282     0.524368     0.562360 C          1 UNL1 0.000
    23 C      -0.331737     0.496049     1.803940 C          1 UNL1 0.000
    24 C      -1.745486     0.480088     1.793075 C          1 UNL1 0.000
    25 C      -2.427912     0.528335     0.539308 C          1 UNL1 0.000
    26 C       0.318601     0.487511     3.066239 C          1 UNL1 0.000
    27 C      -0.382521     0.463748     4.272277 C          1 UNL1 0.000
    28 C      -1.764677     0.438780     4.255879 C          1 UNL1 0.000
    29 C      -2.432442     0.443346     3.033521 C          1 UNL1 0.000
    30 H      -7.442060     3.381785    -0.498050 H          1 UNL1 0.000
    31 H      -6.381744     1.200334    -0.503087 H          1 UNL1 0.000
    32 H      -2.859081     2.949197     1.298909 H          1 UNL1 0.000
    33 H      -3.905314     5.133222     1.200357 H          1 UNL1 0.000
    34 H      -6.459583    -0.070389     1.364513 H          1 UNL1 0.000
    35 H      -7.580988    -2.238192     1.219913 H          1 UNL1 0.000
    36 H      -6.356032    -4.247931     0.435570 H          1 UNL1 0.000
    37 H      -3.969016    -4.049368    -0.214918 H          1 UNL1 0.000
    38 H      -2.852705    -1.896302    -0.172355 H          1 UNL1 0.000
    39 H      -6.444562     5.826925    -1.706364 H          1 UNL1 0.000
    40 H      -7.159730     7.132167    -0.748834 H          1 UNL1 0.000
    41 H      -7.976231     5.566070    -0.788069 H          1 UNL1 0.000
    42 H      -3.480121     0.613840    -1.996532 H          1 UNL1 0.000
    43 H      -2.254260     0.623350    -4.104822 H          1 UNL1 0.000
    44 H       0.229584     0.589342    -4.095876 H          1 UNL1 0.000
    45 H       1.444733     0.553043    -1.988985 H          1 UNL1 0.000
    46 H       1.405730     0.507077     3.126516 H          1 UNL1 0.000
    47 H       0.155089     0.465373     5.216324 H          1 UNL1 0.000
    48 H      -2.327677     0.420609     5.184784 H          1 UNL1 0.000
    49 H      -3.521313     0.430697     3.055790 H          1 UNL1 0.000
    50 C       1.861623     0.493504     0.567005 C          1 UNL1 0.000
    51 C       2.608807     1.683726     0.544431 C          1 UNL1 0.000
    52 C       4.004706     1.645394     0.507393 C          1 UNL1 0.000
    53 C       4.657959     0.415303     0.506699 C          1 UNL1 0.000
    54 C       3.936425    -0.774667     0.516374 C          1 UNL1 0.000
    55 C       2.542812    -0.735560     0.557005 C          1 UNL1 0.000
    56 O       6.020748     0.348778     0.413916 O          1 UNL1 0.000
    57 C       6.615474     0.584241     1.689561 C          1 UNL1 0.000
    58 H       2.099487     2.645468     0.536019 H          1 UNL1 0.000
    59 H       4.572840     2.569508     0.460765 H          1 UNL1 0.000
    60 H       4.455526    -1.727898     0.486942 H          1 UNL1 0.000
    61 H       1.982405    -1.668289     0.563860 H          1 UNL1 0.000
    62 H       7.670967     0.303917     1.621949 H          1 UNL1 0.000
    63 H       6.153748    -0.028655     2.472442 H          1 UNL1 0.000
    64 H       6.560399     1.645556     1.952552 H          1 UNL1 0.000
@<TRIPOS>BOND
     1      1      2   2
     2      2      3   1
     3      3      4   2
     4      4      5   1
     5      5      6   2
     6      6      1   1
     7      4      7   1
     8      7      8   1
     9      8      9   2
    10      9     10   1
    11     10     11   2
    12     11     12   1
    13     12     13   2
    14     13      8   1
    15     14     15   1
    16      1     14   1
    17     16     17   2
    18     17     18   1
    19     18     19   2
    20     19     20   1
    21     20     21   2
    22     21     16   1
    23     20     22   1
    24     22     23   2
    25     23     24   1
    26     24     25   2
    27     25     21   1
    28     23     26   1
    29     26     27   2
    30     27     28   1
    31     28     29   2
    32     29     24   1
    33      7     25   1
    34      2     30   1
    35      3     31   1
    36      5     32   1
    37      6     33   1
    38      9     34   1
    39     10     35   1
    40     11     36   1
    41     12     37   1
    42     13     38   1
    43     15     39   1
    44     15     40   1
    45     15     41   1
    46     16     42   1
    47     17     43   1
    48     18     44   1
    49     19     45   1
    50     26     46   1
    51     27     47   1
    52     28     48   1
    53     29     49   1
    54     50     51   2
    55     51     52   1
    56     52     53   2
    57     53     54   1
    58     54     55   2
    59     55     50   1
    60     56     57   1
    61     53     56   1
    62     51     58   1
    63     52     59   1
    64     54     60   1
    65     55     61   1
    66     57     62   1
    67     57     63   1
    68     57     64   1
    69     22     50   1
