# Produced with molli package
@<TRIPOS>MOLECULE
E_3_L
64 70 0 0 0
SMALL
USER_CHARGES

@<TRIPOS>ATOM
     1 C      -5.839854     4.466565     0.310008 C          1 UNL1 0.000
     2 C      -6.503514     3.343018    -0.174566 C          1 UNL1 0.000
     3 C      -5.880780     2.083500    -0.140608 C          1 UNL1 0.000
     4 C      -4.601226     1.907213     0.413542 C          1 UNL1 0.000
     5 C      -3.947639     3.069212     0.872561 C          1 UNL1 0.000
     6 C      -4.561772     4.324974     0.835156 C          1 UNL1 0.000
     7 N      -3.947852     0.612247     0.478385 N          1 UNL1 0.000
     8 C      -4.636042    -0.665320     0.545715 C          1 UNL1 0.000
     9 C      -5.940588    -0.794879     1.052170 C          1 UNL1 0.000
    10 C      -6.593126    -2.034932     1.089189 C          1 UNL1 0.000
    11 C      -5.941157    -3.185577     0.657896 C          1 UNL1 0.000
    12 C      -4.633049    -3.099326     0.200693 C          1 UNL1 0.000
    13 C      -3.991699    -1.857352     0.148102 C          1 UNL1 0.000
    14 O      -6.358960     5.729528     0.360257 O          1 UNL1 0.000
    15 C      -7.201663     6.077599    -0.731808 C          1 UNL1 0.000
    16 C      -2.464986     0.662228    -2.015342 C          1 UNL1 0.000
    17 C      -1.786982     0.662703    -3.232038 C          1 UNL1 0.000
    18 C      -0.405036     0.641001    -3.236417 C          1 UNL1 0.000
    19 C       0.285294     0.619298    -2.024299 C          1 UNL1 0.000
    20 C      -0.375925     0.608959    -0.767424 C          1 UNL1 0.000
    21 C      -1.789295     0.631240    -0.768305 C          1 UNL1 0.000
    22 C       0.326372     0.571180     0.479603 C          1 UNL1 0.000
    23 C      -0.377131     0.540440     1.726665 C          1 UNL1 0.000
    24 C      -1.790423     0.542401     1.727859 C          1 UNL1 0.000
    25 C      -2.483294     0.595087     0.479694 C          1 UNL1 0.000
    26 C       0.284016     0.513110     2.983573 C          1 UNL1 0.000
    27 C      -0.405648     0.499148     4.195916 C          1 UNL1 0.000
    28 C      -1.787597     0.502419     4.191907 C          1 UNL1 0.000
    29 C      -2.465945     0.518617     2.975394 C          1 UNL1 0.000
    30 H      -7.511831     3.410329    -0.569276 H          1 UNL1 0.000
    31 H      -6.417465     1.243590    -0.573159 H          1 UNL1 0.000
    32 H      -2.944907     3.024268     1.287959 H          1 UNL1 0.000
    33 H      -4.030227     5.194592     1.212870 H          1 UNL1 0.000
    34 H      -6.470073     0.064306     1.453283 H          1 UNL1 0.000
    35 H      -7.610043    -2.099917     1.467454 H          1 UNL1 0.000
    36 H      -6.444284    -4.148072     0.691537 H          1 UNL1 0.000
    37 H      -4.102946    -3.993458    -0.117435 H          1 UNL1 0.000
    38 H      -2.969799    -1.845624    -0.221622 H          1 UNL1 0.000
    39 H      -6.709439     5.878838    -1.689974 H          1 UNL1 0.000
    40 H      -7.394425     7.153297    -0.671031 H          1 UNL1 0.000
    41 H      -8.165900     5.564816    -0.670018 H          1 UNL1 0.000
    42 H      -3.553222     0.672560    -2.047940 H          1 UNL1 0.000
    43 H      -2.341893     0.676406    -4.165704 H          1 UNL1 0.000
    44 H       0.141734     0.638741    -4.175134 H          1 UNL1 0.000
    45 H       1.373183     0.602755    -2.075372 H          1 UNL1 0.000
    46 H       1.372007     0.506705     3.034801 H          1 UNL1 0.000
    47 H       0.141723     0.486287     5.134180 H          1 UNL1 0.000
    48 H      -2.342297     0.494595     5.125782 H          1 UNL1 0.000
    49 H      -3.554309     0.525756     3.008588 H          1 UNL1 0.000
    50 C       1.808872     0.564803     0.482770 C          1 UNL1 0.000
    51 C       2.523793     1.768399     0.578041 C          1 UNL1 0.000
    52 C       3.922576     1.793081     0.601555 C          1 UNL1 0.000
    53 C       4.590573     0.567200     0.521075 C          1 UNL1 0.000
    54 C       3.920669    -0.651329     0.418654 C          1 UNL1 0.000
    55 C       2.512685    -0.652239     0.400919 C          1 UNL1 0.000
    56 N       5.938863     0.287922     0.524440 N          1 UNL1 0.000
    57 C       6.142927    -1.062700     0.422265 C          1 UNL1 0.000
    58 C       4.910208    -1.670457     0.354231 C          1 UNL1 0.000
    59 H       1.981323     2.710793     0.642065 H          1 UNL1 0.000
    60 H       4.460145     2.732049     0.681615 H          1 UNL1 0.000
    61 H       1.972648    -1.592621     0.326220 H          1 UNL1 0.000
    62 H       6.667611     0.984587     0.593108 H          1 UNL1 0.000
    63 H       7.143435    -1.473255     0.407737 H          1 UNL1 0.000
    64 H       4.734595    -2.734764     0.268689 H          1 UNL1 0.000
@<TRIPOS>BOND
     1      1      2   2
     2      2      3   1
     3      3      4   2
     4      4      5   1
     5      5      6   2
     6      6      1   1
     7      4      7   1
     8      7      8   1
     9      8      9   2
    10      9     10   1
    11     10     11   2
    12     11     12   1
    13     12     13   2
    14     13      8   1
    15     14     15   1
    16      1     14   1
    17     16     17   2
    18     17     18   1
    19     18     19   2
    20     19     20   1
    21     20     21   2
    22     21     16   1
    23     20     22   1
    24     22     23   2
    25     23     24   1
    26     24     25   2
    27     25     21   1
    28     23     26   1
    29     26     27   2
    30     27     28   1
    31     28     29   2
    32     29     24   1
    33      7     25   1
    34      2     30   1
    35      3     31   1
    36      5     32   1
    37      6     33   1
    38      9     34   1
    39     10     35   1
    40     11     36   1
    41     12     37   1
    42     13     38   1
    43     15     39   1
    44     15     40   1
    45     15     41   1
    46     16     42   1
    47     17     43   1
    48     18     44   1
    49     19     45   1
    50     26     46   1
    51     27     47   1
    52     28     48   1
    53     29     49   1
    54     50     51   2
    55     51     52   1
    56     52     53   2
    57     53     54   1
    58     54     55   2
    59     55     50   1
    60     53     56   1
    61     56     57   1
    62     57     58   2
    63     58     54   1
    64     51     59   1
    65     52     60   1
    66     55     61   1
    67     56     62   1
    68     57     63   1
    69     58     64   1
    70     22     50   1
