# Produced with molli package
@<TRIPOS>MOLECULE
E_3_T
63 68 0 0 0
SMALL
USER_CHARGES

@<TRIPOS>ATOM
     1 C      -5.873781     4.409781     0.229874 C          1 UNL1 0.000
     2 C      -6.505237     3.275326    -0.271066 C          1 UNL1 0.000
     3 C      -5.858479     2.029847    -0.224935 C          1 UNL1 0.000
     4 C      -4.586827     1.879341     0.356222 C          1 UNL1 0.000
     5 C      -3.961805     3.051776     0.825235 C          1 UNL1 0.000
     6 C      -4.601974     4.294808     0.777936 C          1 UNL1 0.000
     7 N      -3.923295     0.591945     0.444495 N          1 UNL1 0.000
     8 C      -4.614514    -0.681887     0.527430 C          1 UNL1 0.000
     9 C      -5.906561    -0.799196     1.069660 C          1 UNL1 0.000
    10 C      -6.567893    -2.032802     1.125699 C          1 UNL1 0.000
    11 C      -5.938064    -3.187339     0.672510 C          1 UNL1 0.000
    12 C      -4.643121    -3.111232     0.175402 C          1 UNL1 0.000
    13 C      -3.990811    -1.875702     0.108050 C          1 UNL1 0.000
    14 O      -6.439415     5.652364     0.291144 O          1 UNL1 0.000
    15 C      -7.166310     6.030148    -0.872774 C          1 UNL1 0.000
    16 C      -2.408909     0.630771    -2.029953 C          1 UNL1 0.000
    17 C      -1.715484     0.620192    -3.237931 C          1 UNL1 0.000
    18 C      -0.333735     0.592582    -3.224770 C          1 UNL1 0.000
    19 C       0.340875     0.579166    -2.003925 C          1 UNL1 0.000
    20 C      -0.335982     0.584617    -0.755434 C          1 UNL1 0.000
    21 C      -1.749605     0.607165    -0.774118 C          1 UNL1 0.000
    22 C       0.351619     0.561435     0.499953 C          1 UNL1 0.000
    23 C      -0.367333     0.537283     1.737720 C          1 UNL1 0.000
    24 C      -1.781289     0.532271     1.721293 C          1 UNL1 0.000
    25 C      -2.459723     0.577690     0.464692 C          1 UNL1 0.000
    26 C       0.278989     0.525253     3.002436 C          1 UNL1 0.000
    27 C      -0.424935     0.509953     4.206440 C          1 UNL1 0.000
    28 C      -1.806768     0.501355     4.185693 C          1 UNL1 0.000
    29 C      -2.470845     0.509788     2.961057 C          1 UNL1 0.000
    30 H      -7.509324     3.322563    -0.678987 H          1 UNL1 0.000
    31 H      -6.371142     1.176337    -0.660734 H          1 UNL1 0.000
    32 H      -2.967864     3.022309     1.262686 H          1 UNL1 0.000
    33 H      -4.099000     5.174170     1.171698 H          1 UNL1 0.000
    34 H      -6.416210     0.067269     1.481833 H          1 UNL1 0.000
    35 H      -7.573540    -2.089396     1.534155 H          1 UNL1 0.000
    36 H      -6.448691    -4.145380     0.718719 H          1 UNL1 0.000
    37 H      -4.132724    -4.009330    -0.162996 H          1 UNL1 0.000
    38 H      -2.980935    -1.868308    -0.293130 H          1 UNL1 0.000
    39 H      -6.535523     5.964358    -1.765686 H          1 UNL1 0.000
    40 H      -7.467147     7.075310    -0.749344 H          1 UNL1 0.000
    41 H      -8.078759     5.439149    -0.992327 H          1 UNL1 0.000
    42 H      -3.496603     0.643719    -2.076703 H          1 UNL1 0.000
    43 H      -2.258412     0.628948    -4.178649 H          1 UNL1 0.000
    44 H       0.224850     0.579939    -4.156391 H          1 UNL1 0.000
    45 H       1.429195     0.556103    -2.041115 H          1 UNL1 0.000
    46 H       1.366298     0.532859     3.066519 H          1 UNL1 0.000
    47 H       0.111011     0.506297     5.151378 H          1 UNL1 0.000
    48 H      -2.372464     0.492238     5.112972 H          1 UNL1 0.000
    49 H      -3.559479     0.510980     2.981939 H          1 UNL1 0.000
    50 C       1.833494     0.570384     0.519397 C          1 UNL1 0.000
    51 C       2.539705     1.782700     0.510227 C          1 UNL1 0.000
    52 C       3.936479     1.795058     0.531543 C          1 UNL1 0.000
    53 C       4.654747     0.595297     0.573837 C          1 UNL1 0.000
    54 C       3.955935    -0.617332     0.568686 C          1 UNL1 0.000
    55 C       2.558966    -0.629821     0.546052 C          1 UNL1 0.000
    56 C       6.154636     0.602242     0.567500 C          1 UNL1 0.000
    57 H       1.998253     2.726383     0.484130 H          1 UNL1 0.000
    58 H       4.457680     2.749546     0.517021 H          1 UNL1 0.000
    59 H       4.494951    -1.561958     0.583885 H          1 UNL1 0.000
    60 H       2.033413    -1.582661     0.548668 H          1 UNL1 0.000
    61 H       6.525362     0.438659    -0.449021 H          1 UNL1 0.000
    62 H       6.546595    -0.183202     1.222130 H          1 UNL1 0.000
    63 H       6.546917     1.556769     0.933818 H          1 UNL1 0.000
@<TRIPOS>BOND
     1      1      2   2
     2      2      3   1
     3      3      4   2
     4      4      5   1
     5      5      6   2
     6      6      1   1
     7      4      7   1
     8      7      8   1
     9      8      9   2
    10      9     10   1
    11     10     11   2
    12     11     12   1
    13     12     13   2
    14     13      8   1
    15     14     15   1
    16      1     14   1
    17     16     17   2
    18     17     18   1
    19     18     19   2
    20     19     20   1
    21     20     21   2
    22     21     16   1
    23     20     22   1
    24     22     23   2
    25     23     24   1
    26     24     25   2
    27     25     21   1
    28     23     26   1
    29     26     27   2
    30     27     28   1
    31     28     29   2
    32     29     24   1
    33      7     25   1
    34      2     30   1
    35      3     31   1
    36      5     32   1
    37      6     33   1
    38      9     34   1
    39     10     35   1
    40     11     36   1
    41     12     37   1
    42     13     38   1
    43     15     39   1
    44     15     40   1
    45     15     41   1
    46     16     42   1
    47     17     43   1
    48     18     44   1
    49     19     45   1
    50     26     46   1
    51     27     47   1
    52     28     48   1
    53     29     49   1
    54     50     51   2
    55     51     52   1
    56     52     53   2
    57     53     54   1
    58     54     55   2
    59     55     50   1
    60     53     56   1
    61     51     57   1
    62     52     58   1
    63     54     59   1
    64     55     60   1
    65     56     61   1
    66     56     62   1
    67     56     63   1
    68     22     50   1
