# Produced with molli package
@<TRIPOS>MOLECULE
E_3_K
62 67 0 0 0
SMALL
USER_CHARGES

@<TRIPOS>ATOM
     1 C      -6.009515     4.338218     0.395037 C          1 UNL1 0.000
     2 C      -6.583445     3.216613    -0.196712 C          1 UNL1 0.000
     3 C      -5.908821     1.987267    -0.171208 C          1 UNL1 0.000
     4 C      -4.663917     1.844867     0.468440 C          1 UNL1 0.000
     5 C      -4.098609     3.002457     1.036059 C          1 UNL1 0.000
     6 C      -4.771847     4.227987     1.017741 C          1 UNL1 0.000
     7 N      -3.973835     0.571896     0.519624 N          1 UNL1 0.000
     8 C      -4.652144    -0.707691     0.595759 C          1 UNL1 0.000
     9 C      -5.930265    -0.836772     1.169093 C          1 UNL1 0.000
    10 C      -6.580781    -2.074788     1.233512 C          1 UNL1 0.000
    11 C      -5.956813    -3.219449     0.748238 C          1 UNL1 0.000
    12 C      -4.679049    -3.128756     0.209007 C          1 UNL1 0.000
    13 C      -4.034357    -1.889359     0.138907 C          1 UNL1 0.000
    14 O      -6.616646     5.560513     0.471872 O          1 UNL1 0.000
    15 C      -7.180859     6.000142    -0.759706 C          1 UNL1 0.000
    16 C      -2.519499     0.689665    -1.987331 C          1 UNL1 0.000
    17 C      -1.854825     0.722206    -3.211199 C          1 UNL1 0.000
    18 C      -0.473419     0.727590    -3.231093 C          1 UNL1 0.000
    19 C       0.230270     0.700076    -2.026954 C          1 UNL1 0.000
    20 C      -0.416922     0.655308    -0.762748 C          1 UNL1 0.000
    21 C      -1.830387     0.651803    -0.747629 C          1 UNL1 0.000
    22 C       0.301209     0.608446     0.475508 C          1 UNL1 0.000
    23 C      -0.388766     0.544428     1.728879 C          1 UNL1 0.000
    24 C      -1.802063     0.518170     1.744454 C          1 UNL1 0.000
    25 C      -2.511820     0.582233     0.506060 C          1 UNL1 0.000
    26 C       0.286651     0.509443     2.978504 C          1 UNL1 0.000
    27 C      -0.389834     0.459312     4.197448 C          1 UNL1 0.000
    28 C      -1.771036     0.430295     4.207543 C          1 UNL1 0.000
    29 C      -2.462788     0.454005     2.998668 C          1 UNL1 0.000
    30 H      -7.562841     3.265629    -0.661066 H          1 UNL1 0.000
    31 H      -6.371757     1.138228    -0.668189 H          1 UNL1 0.000
    32 H      -3.132913     2.969953     1.531855 H          1 UNL1 0.000
    33 H      -4.322518     5.097413     1.490207 H          1 UNL1 0.000
    34 H      -6.434151     0.024847     1.599027 H          1 UNL1 0.000
    35 H      -7.572690    -2.142481     1.672764 H          1 UNL1 0.000
    36 H      -6.459613    -4.181416     0.800240 H          1 UNL1 0.000
    37 H      -4.176948    -4.019687    -0.159433 H          1 UNL1 0.000
    38 H      -3.038423    -1.867730    -0.294919 H          1 UNL1 0.000
    39 H      -6.443942     5.956423    -1.569156 H          1 UNL1 0.000
    40 H      -7.478894     7.045537    -0.632484 H          1 UNL1 0.000
    41 H      -8.078217     5.429844    -1.016680 H          1 UNL1 0.000
    42 H      -3.607730     0.679380    -2.009543 H          1 UNL1 0.000
    43 H      -2.420316     0.740177    -4.138647 H          1 UNL1 0.000
    44 H       0.062210     0.751453    -4.176160 H          1 UNL1 0.000
    45 H       1.316608     0.707704    -2.093170 H          1 UNL1 0.000
    46 H       1.374045     0.526787     3.021196 H          1 UNL1 0.000
    47 H       0.166483     0.443399     5.130656 H          1 UNL1 0.000
    48 H      -2.315848     0.392153     5.146748 H          1 UNL1 0.000
    49 H      -3.550419     0.435006     3.044602 H          1 UNL1 0.000
    50 C       1.783433     0.622967     0.459090 C          1 UNL1 0.000
    51 C       2.487470     1.832650     0.598313 C          1 UNL1 0.000
    52 C       3.884232     1.851434     0.587360 C          1 UNL1 0.000
    53 C       4.583160     0.650156     0.424461 C          1 UNL1 0.000
    54 C       3.903935    -0.564661     0.279164 C          1 UNL1 0.000
    55 C       2.507287    -0.572933     0.302890 C          1 UNL1 0.000
    56 N       6.045964     0.664234     0.405004 N          1 UNL1 0.000
    57 O       6.617441     1.601387     0.980289 O          1 UNL1 0.000
    58 O       6.619966    -0.261317    -0.185476 O          1 UNL1 0.000
    59 H       1.940883     2.767136     0.719805 H          1 UNL1 0.000
    60 H       4.406997     2.798910     0.700291 H          1 UNL1 0.000
    61 H       4.442023    -1.501775     0.152943 H          1 UNL1 0.000
    62 H       1.976124    -1.517849     0.194568 H          1 UNL1 0.000
@<TRIPOS>BOND
     1      1      2   2
     2      2      3   1
     3      3      4   2
     4      4      5   1
     5      5      6   2
     6      6      1   1
     7      4      7   1
     8      7      8   1
     9      8      9   2
    10      9     10   1
    11     10     11   2
    12     11     12   1
    13     12     13   2
    14     13      8   1
    15     14     15   1
    16      1     14   1
    17     16     17   2
    18     17     18   1
    19     18     19   2
    20     19     20   1
    21     20     21   2
    22     21     16   1
    23     20     22   1
    24     22     23   2
    25     23     24   1
    26     24     25   2
    27     25     21   1
    28     23     26   1
    29     26     27   2
    30     27     28   1
    31     28     29   2
    32     29     24   1
    33      7     25   1
    34      2     30   1
    35      3     31   1
    36      5     32   1
    37      6     33   1
    38      9     34   1
    39     10     35   1
    40     11     36   1
    41     12     37   1
    42     13     38   1
    43     15     39   1
    44     15     40   1
    45     15     41   1
    46     16     42   1
    47     17     43   1
    48     18     44   1
    49     19     45   1
    50     26     46   1
    51     27     47   1
    52     28     48   1
    53     29     49   1
    54     50     51   2
    55     51     52   1
    56     52     53   2
    57     53     54   1
    58     54     55   2
    59     55     50   1
    60     56     57   2
    61     56     58   1
    62     53     56   1
    63     51     59   1
    64     52     60   1
    65     54     61   1
    66     55     62   1
    67     22     50   1
