# Produced with molli package
@<TRIPOS>MOLECULE
E_3_N
57 62 0 0 0
SMALL
USER_CHARGES

@<TRIPOS>ATOM
     1 C      -5.926065     4.366178     0.637388 C          1 UNL1 0.000
     2 C      -6.556122     3.244132     1.160162 C          1 UNL1 0.000
     3 C      -5.903074     2.005592     1.139874 C          1 UNL1 0.000
     4 C      -4.617854     1.861310     0.584185 C          1 UNL1 0.000
     5 C      -3.981358     3.036602     0.131765 C          1 UNL1 0.000
     6 C      -4.625377     4.277877     0.159236 C          1 UNL1 0.000
     7 N      -3.949936     0.574747     0.517402 N          1 UNL1 0.000
     8 C      -4.643213    -0.697230     0.429207 C          1 UNL1 0.000
     9 C      -5.917158    -0.814476    -0.155231 C          1 UNL1 0.000
    10 C      -6.583202    -2.044643    -0.217873 C          1 UNL1 0.000
    11 C      -5.975852    -3.195555     0.273285 C          1 UNL1 0.000
    12 C      -4.698779    -3.119144     0.815513 C          1 UNL1 0.000
    13 C      -4.041111    -1.886772     0.887957 C          1 UNL1 0.000
    14 O      -6.583004     5.564595     0.673756 O          1 UNL1 0.000
    15 C      -6.999463     5.941735    -0.639776 C          1 UNL1 0.000
    16 C      -2.468651     0.461022    -1.981454 C          1 UNL1 0.000
    17 C      -1.790716     0.436207    -3.198523 C          1 UNL1 0.000
    18 C      -0.408681     0.446626    -3.204805 C          1 UNL1 0.000
    19 C       0.282160     0.477868    -1.993800 C          1 UNL1 0.000
    20 C      -0.380171     0.503003    -0.736181 C          1 UNL1 0.000
    21 C      -1.793452     0.498906    -0.734274 C          1 UNL1 0.000
    22 C       0.310566     0.538577     0.513917 C          1 UNL1 0.000
    23 C      -0.378280     0.572068     1.765112 C          1 UNL1 0.000
    24 C      -1.791314     0.599746     1.764693 C          1 UNL1 0.000
    25 C      -2.486591     0.558500     0.515785 C          1 UNL1 0.000
    26 C       0.285004     0.570299     3.022310 C          1 UNL1 0.000
    27 C      -0.405050     0.597482     4.233957 C          1 UNL1 0.000
    28 C      -1.786767     0.634463     4.228716 C          1 UNL1 0.000
    29 C      -2.465601     0.638445     3.012040 C          1 UNL1 0.000
    30 H      -7.553406     3.328021     1.581924 H          1 UNL1 0.000
    31 H      -6.413127     1.155362     1.584739 H          1 UNL1 0.000
    32 H      -2.970508     3.009305    -0.265532 H          1 UNL1 0.000
    33 H      -4.104094     5.164088    -0.190197 H          1 UNL1 0.000
    34 H      -6.408126     0.050127    -0.593286 H          1 UNL1 0.000
    35 H      -7.574835    -2.101260    -0.659240 H          1 UNL1 0.000
    36 H      -6.490615    -4.151221     0.223446 H          1 UNL1 0.000
    37 H      -4.207500    -4.015013     1.186519 H          1 UNL1 0.000
    38 H      -3.047151    -1.877390     1.326757 H          1 UNL1 0.000
    39 H      -6.143610     6.116468    -1.300750 H          1 UNL1 0.000
    40 H      -7.557861     6.879120    -0.558760 H          1 UNL1 0.000
    41 H      -7.666099     5.186202    -1.071054 H          1 UNL1 0.000
    42 H      -3.556881     0.459745    -2.014848 H          1 UNL1 0.000
    43 H      -2.346229     0.412248    -4.131785 H          1 UNL1 0.000
    44 H       0.137087     0.431223    -4.144110 H          1 UNL1 0.000
    45 H       1.369819     0.487355    -2.045839 H          1 UNL1 0.000
    46 H       1.372305     0.539275     3.073470 H          1 UNL1 0.000
    47 H       0.140858     0.588768     5.173265 H          1 UNL1 0.000
    48 H      -2.341623     0.655187     5.162508 H          1 UNL1 0.000
    49 H      -3.553807     0.658446     3.045900 H          1 UNL1 0.000
    50 C       1.778067     0.530368     0.511620 C          1 UNL1 0.000
    51 C       2.501925     1.705783     0.564644 C          1 UNL1 0.000
    52 S       4.190393     1.424229     0.543839 S          1 UNL1 0.000
    53 C       3.964803    -0.269778     0.458881 C          1 UNL1 0.000
    54 C       2.631369    -0.615402     0.449691 C          1 UNL1 0.000
    55 H       2.124199     2.718511     0.616777 H          1 UNL1 0.000
    56 H       4.820268    -0.929999     0.419383 H          1 UNL1 0.000
    57 H       2.281098    -1.639435     0.398143 H          1 UNL1 0.000
@<TRIPOS>BOND
     1      1      2   2
     2      2      3   1
     3      3      4   2
     4      4      5   1
     5      5      6   2
     6      6      1   1
     7      4      7   1
     8      7      8   1
     9      8      9   2
    10      9     10   1
    11     10     11   2
    12     11     12   1
    13     12     13   2
    14     13      8   1
    15     14     15   1
    16      1     14   1
    17     16     17   2
    18     17     18   1
    19     18     19   2
    20     19     20   1
    21     20     21   2
    22     21     16   1
    23     20     22   1
    24     22     23   2
    25     23     24   1
    26     24     25   2
    27     25     21   1
    28     23     26   1
    29     26     27   2
    30     27     28   1
    31     28     29   2
    32     29     24   1
    33      7     25   1
    34      2     30   1
    35      3     31   1
    36      5     32   1
    37      6     33   1
    38      9     34   1
    39     10     35   1
    40     11     36   1
    41     12     37   1
    42     13     38   1
    43     15     39   1
    44     15     40   1
    45     15     41   1
    46     16     42   1
    47     17     43   1
    48     18     44   1
    49     19     45   1
    50     26     46   1
    51     27     47   1
    52     28     48   1
    53     29     49   1
    54     50     51   2
    55     51     52   1
    56     52     53   1
    57     53     54   2
    58     54     50   1
    59     51     55   1
    60     53     56   1
    61     54     57   1
    62     22     50   1
