# Produced with molli package
@<TRIPOS>MOLECULE
E_3_O
59 64 0 0 0
SMALL
USER_CHARGES

@<TRIPOS>ATOM
     1 C      -5.904777     4.298631     0.370379 C          1 UNL1 0.000
     2 C      -6.529683     3.165312    -0.140838 C          1 UNL1 0.000
     3 C      -5.861168     1.932266    -0.132770 C          1 UNL1 0.000
     4 C      -4.574227     1.795812     0.419662 C          1 UNL1 0.000
     5 C      -3.959232     2.969108     0.900635 C          1 UNL1 0.000
     6 C      -4.622631     4.200366     0.894558 C          1 UNL1 0.000
     7 N      -3.893106     0.515928     0.472015 N          1 UNL1 0.000
     8 C      -4.574898    -0.760546     0.573148 C          1 UNL1 0.000
     9 C      -5.831750    -0.886225     1.191955 C          1 UNL1 0.000
    10 C      -6.485710    -2.121535     1.275151 C          1 UNL1 0.000
    11 C      -5.884386    -3.267845     0.765748 C          1 UNL1 0.000
    12 C      -4.624971    -3.181660     0.184579 C          1 UNL1 0.000
    13 C      -3.977938    -1.944707     0.094985 C          1 UNL1 0.000
    14 O      -6.514892     5.518421     0.462044 O          1 UNL1 0.000
    15 C      -7.033195     5.975227    -0.783995 C          1 UNL1 0.000
    16 C      -2.415874     0.564996    -2.025869 C          1 UNL1 0.000
    17 C      -1.739687     0.560724    -3.243745 C          1 UNL1 0.000
    18 C      -0.357326     0.554481    -3.250591 C          1 UNL1 0.000
    19 C       0.334455     0.551430    -2.039654 C          1 UNL1 0.000
    20 C      -0.324164     0.542781    -0.781722 C          1 UNL1 0.000
    21 C      -1.738940     0.550245    -0.779569 C          1 UNL1 0.000
    22 C       0.381660     0.520289     0.462568 C          1 UNL1 0.000
    23 C      -0.317095     0.514532     1.710679 C          1 UNL1 0.000
    24 C      -1.731587     0.486261     1.715777 C          1 UNL1 0.000
    25 C      -2.429869     0.513979     0.469413 C          1 UNL1 0.000
    26 C       0.348217     0.545484     2.964965 C          1 UNL1 0.000
    27 C      -0.336649     0.533766     4.179812 C          1 UNL1 0.000
    28 C      -1.718033     0.485486     4.180713 C          1 UNL1 0.000
    29 C      -2.400407     0.461138     2.966597 C          1 UNL1 0.000
    30 H      -7.543007     3.212919    -0.526234 H          1 UNL1 0.000
    31 H      -6.366953     1.075876    -0.571148 H          1 UNL1 0.000
    32 H      -2.956511     2.948205     1.318353 H          1 UNL1 0.000
    33 H      -4.131059     5.080036     1.301104 H          1 UNL1 0.000
    34 H      -6.315062    -0.023997     1.643623 H          1 UNL1 0.000
    35 H      -7.462297    -2.185735     1.747907 H          1 UNL1 0.000
    36 H      -6.389796    -4.227509     0.831960 H          1 UNL1 0.000
    37 H      -4.139099    -4.073743    -0.202240 H          1 UNL1 0.000
    38 H      -2.997261    -1.926457    -0.372221 H          1 UNL1 0.000
    39 H      -6.262690     5.956959    -1.562606 H          1 UNL1 0.000
    40 H      -7.351410     7.013709    -0.649312 H          1 UNL1 0.000
    41 H      -7.909814     5.397058    -1.090642 H          1 UNL1 0.000
    42 H      -3.504440     0.567943    -2.056592 H          1 UNL1 0.000
    43 H      -2.295609     0.564362    -4.176785 H          1 UNL1 0.000
    44 H       0.188101     0.557842    -4.189952 H          1 UNL1 0.000
    45 H       1.422715     0.564779    -2.091647 H          1 UNL1 0.000
    46 H       1.435311     0.602543     3.011147 H          1 UNL1 0.000
    47 H       0.212505     0.569704     5.116343 H          1 UNL1 0.000
    48 H      -2.269483     0.479290     5.116497 H          1 UNL1 0.000
    49 H      -3.488484     0.439600     3.004958 H          1 UNL1 0.000
    50 C       1.858153     0.470695     0.457009 C          1 UNL1 0.000
    51 N       2.492920     1.666291     0.381091 N          1 UNL1 0.000
    52 C       3.843235     1.650671     0.366469 C          1 UNL1 0.000
    53 C       4.601717     0.493634     0.424701 C          1 UNL1 0.000
    54 C       3.937778    -0.724489     0.503481 C          1 UNL1 0.000
    55 C       2.546021    -0.740902     0.519577 C          1 UNL1 0.000
    56 H       4.314686     2.627307     0.303604 H          1 UNL1 0.000
    57 H       5.684769     0.541520     0.408744 H          1 UNL1 0.000
    58 H       4.497122    -1.654279     0.551231 H          1 UNL1 0.000
    59 H       2.005642    -1.680347     0.579480 H          1 UNL1 0.000
@<TRIPOS>BOND
     1      1      2   2
     2      2      3   1
     3      3      4   2
     4      4      5   1
     5      5      6   2
     6      6      1   1
     7      4      7   1
     8      7      8   1
     9      8      9   2
    10      9     10   1
    11     10     11   2
    12     11     12   1
    13     12     13   2
    14     13      8   1
    15     14     15   1
    16      1     14   1
    17     16     17   2
    18     17     18   1
    19     18     19   2
    20     19     20   1
    21     20     21   2
    22     21     16   1
    23     20     22   1
    24     22     23   2
    25     23     24   1
    26     24     25   2
    27     25     21   1
    28     23     26   1
    29     26     27   2
    30     27     28   1
    31     28     29   2
    32     29     24   1
    33      7     25   1
    34      2     30   1
    35      3     31   1
    36      5     32   1
    37      6     33   1
    38      9     34   1
    39     10     35   1
    40     11     36   1
    41     12     37   1
    42     13     38   1
    43     15     39   1
    44     15     40   1
    45     15     41   1
    46     16     42   1
    47     17     43   1
    48     18     44   1
    49     19     45   1
    50     26     46   1
    51     27     47   1
    52     28     48   1
    53     29     49   1
    54     50     51   2
    55     51     52   1
    56     52     53   2
    57     53     54   1
    58     54     55   2
    59     55     50   1
    60     52     56   1
    61     53     57   1
    62     54     58   1
    63     55     59   1
    64     22     50   1
