# Produced with molli package
@<TRIPOS>MOLECULE
E_3_Q
58 63 0 0 0
SMALL
USER_CHARGES

@<TRIPOS>ATOM
     1 C      -5.862256     4.332048     0.683027 C          1 UNL1 0.000
     2 C      -6.546014     3.207738     1.127455 C          1 UNL1 0.000
     3 C      -5.919262     1.954758     1.102191 C          1 UNL1 0.000
     4 C      -4.609528     1.796667     0.612250 C          1 UNL1 0.000
     5 C      -3.928245     2.973276     0.227449 C          1 UNL1 0.000
     6 C      -4.542676     4.229023     0.267386 C          1 UNL1 0.000
     7 N      -3.952463     0.501796     0.553959 N          1 UNL1 0.000
     8 C      -4.644814    -0.772018     0.481695 C          1 UNL1 0.000
     9 C      -5.914043    -0.904720    -0.107988 C          1 UNL1 0.000
    10 C      -6.578237    -2.137638    -0.146691 C          1 UNL1 0.000
    11 C      -5.971494    -3.277857     0.369856 C          1 UNL1 0.000
    12 C      -4.696259    -3.188661     0.913183 C          1 UNL1 0.000
    13 C      -4.042524    -1.953140     0.964253 C          1 UNL1 0.000
    14 O      -6.474775     5.552809     0.737320 O          1 UNL1 0.000
    15 C      -6.978191     5.903276    -0.552575 C          1 UNL1 0.000
    16 C      -2.440897     0.365099    -1.921749 C          1 UNL1 0.000
    17 C      -1.748325     0.339385    -3.130115 C          1 UNL1 0.000
    18 C      -0.366437     0.364234    -3.119195 C          1 UNL1 0.000
    19 C       0.309798     0.407687    -1.899985 C          1 UNL1 0.000
    20 C      -0.366453     0.428299    -0.650820 C          1 UNL1 0.000
    21 C      -1.780568     0.414835    -0.667478 C          1 UNL1 0.000
    22 C       0.321079     0.471851     0.603344 C          1 UNL1 0.000
    23 C      -0.395049     0.533847     1.840852 C          1 UNL1 0.000
    24 C      -1.808799     0.545396     1.825603 C          1 UNL1 0.000
    25 C      -2.488767     0.480338     0.571458 C          1 UNL1 0.000
    26 C       0.252104     0.580169     3.104482 C          1 UNL1 0.000
    27 C      -0.451974     0.623153     4.307866 C          1 UNL1 0.000
    28 C      -1.833863     0.630849     4.287681 C          1 UNL1 0.000
    29 C      -2.498157     0.597607     3.064092 C          1 UNL1 0.000
    30 H      -7.561224     3.302219     1.501231 H          1 UNL1 0.000
    31 H      -6.471154     1.107958     1.499863 H          1 UNL1 0.000
    32 H      -2.897699     2.938763    -0.116147 H          1 UNL1 0.000
    33 H      -3.984737     5.114577    -0.022240 H          1 UNL1 0.000
    34 H      -6.403788    -0.051595    -0.568920 H          1 UNL1 0.000
    35 H      -7.568560    -2.205245    -0.589550 H          1 UNL1 0.000
    36 H      -6.484819    -4.235110     0.338416 H          1 UNL1 0.000
    37 H      -4.203740    -4.076055     1.302536 H          1 UNL1 0.000
    38 H      -3.050427    -1.934580     1.406733 H          1 UNL1 0.000
    39 H      -6.175364     5.969660    -1.295350 H          1 UNL1 0.000
    40 H      -7.446354     6.889060    -0.473717 H          1 UNL1 0.000
    41 H      -7.742448     5.189715    -0.880286 H          1 UNL1 0.000
    42 H      -3.528746     0.358388    -1.967977 H          1 UNL1 0.000
    43 H      -2.292106     0.309774    -4.070086 H          1 UNL1 0.000
    44 H       0.190301     0.357183    -4.052216 H          1 UNL1 0.000
    45 H       1.397691     0.445507    -1.942834 H          1 UNL1 0.000
    46 H       1.339365     0.592667     3.170301 H          1 UNL1 0.000
    47 H       0.083449     0.655856     5.252621 H          1 UNL1 0.000
    48 H      -2.399487     0.665666     5.214464 H          1 UNL1 0.000
    49 H      -3.586991     0.603575     3.085280 H          1 UNL1 0.000
    50 C       1.793787     0.429906     0.623477 C          1 UNL1 0.000
    51 N       2.435528     1.626267     0.662754 N          1 UNL1 0.000
    52 C       3.786600     1.569412     0.689762 C          1 UNL1 0.000
    53 C       4.481318     0.372024     0.676737 C          1 UNL1 0.000
    54 N       3.858245    -0.826649     0.635971 N          1 UNL1 0.000
    55 C       2.503455    -0.769997     0.610758 C          1 UNL1 0.000
    56 H       4.300460     2.523298     0.723661 H          1 UNL1 0.000
    57 H       5.564788     0.345398     0.699531 H          1 UNL1 0.000
    58 H       1.994665    -1.727927     0.579981 H          1 UNL1 0.000
@<TRIPOS>BOND
     1      1      2   2
     2      2      3   1
     3      3      4   2
     4      4      5   1
     5      5      6   2
     6      6      1   1
     7      4      7   1
     8      7      8   1
     9      8      9   2
    10      9     10   1
    11     10     11   2
    12     11     12   1
    13     12     13   2
    14     13      8   1
    15     14     15   1
    16      1     14   1
    17     16     17   2
    18     17     18   1
    19     18     19   2
    20     19     20   1
    21     20     21   2
    22     21     16   1
    23     20     22   1
    24     22     23   2
    25     23     24   1
    26     24     25   2
    27     25     21   1
    28     23     26   1
    29     26     27   2
    30     27     28   1
    31     28     29   2
    32     29     24   1
    33      7     25   1
    34      2     30   1
    35      3     31   1
    36      5     32   1
    37      6     33   1
    38      9     34   1
    39     10     35   1
    40     11     36   1
    41     12     37   1
    42     13     38   1
    43     15     39   1
    44     15     40   1
    45     15     41   1
    46     16     42   1
    47     17     43   1
    48     18     44   1
    49     19     45   1
    50     26     46   1
    51     27     47   1
    52     28     48   1
    53     29     49   1
    54     50     51   2
    55     51     52   1
    56     52     53   2
    57     53     54   1
    58     54     55   2
    59     55     50   1
    60     52     56   1
    61     53     57   1
    62     55     58   1
    63     22     50   1
