# Produced with molli package
@<TRIPOS>MOLECULE
E_3_R
61 66 0 0 0
SMALL
USER_CHARGES

@<TRIPOS>ATOM
     1 C      -5.895597     4.311675     0.424549 C          1 UNL1 0.000
     2 C      -6.532678     3.177660    -0.071325 C          1 UNL1 0.000
     3 C      -5.870249     1.939030    -0.071217 C          1 UNL1 0.000
     4 C      -4.574731     1.796224     0.456122 C          1 UNL1 0.000
     5 C      -3.952221     2.968393     0.932519 C          1 UNL1 0.000
     6 C      -4.607930     4.203228     0.932621 C          1 UNL1 0.000
     7 N      -3.879737     0.522229     0.476522 N          1 UNL1 0.000
     8 C      -4.531760    -0.773649     0.521098 C          1 UNL1 0.000
     9 C      -5.797743    -0.956967     1.103217 C          1 UNL1 0.000
    10 C      -6.412045    -2.215936     1.135817 C          1 UNL1 0.000
    11 C      -5.760854    -3.329397     0.614060 C          1 UNL1 0.000
    12 C      -4.491654    -3.187401     0.068439 C          1 UNL1 0.000
    13 C      -3.886342    -1.927383     0.026743 C          1 UNL1 0.000
    14 O      -6.464936     5.551524     0.503060 O          1 UNL1 0.000
    15 C      -7.212643     5.924197    -0.649600 C          1 UNL1 0.000
    16 C      -2.390283     0.687988    -2.008290 C          1 UNL1 0.000
    17 C      -1.707448     0.734163    -3.221539 C          1 UNL1 0.000
    18 C      -0.325620     0.735228    -3.220888 C          1 UNL1 0.000
    19 C       0.360459     0.689065    -2.007128 C          1 UNL1 0.000
    20 C      -0.305885     0.630511    -0.753713 C          1 UNL1 0.000
    21 C      -1.718552     0.630806    -0.759862 C          1 UNL1 0.000
    22 C       0.392145     0.564333     0.494359 C          1 UNL1 0.000
    23 C      -0.314511     0.518648     1.738565 C          1 UNL1 0.000
    24 C      -1.726739     0.485405     1.733202 C          1 UNL1 0.000
    25 C      -2.416695     0.544444     0.483192 C          1 UNL1 0.000
    26 C       0.342180     0.513939     2.998772 C          1 UNL1 0.000
    27 C      -0.352739     0.466750     4.207600 C          1 UNL1 0.000
    28 C      -1.733504     0.416746     4.196691 C          1 UNL1 0.000
    29 C      -2.406660     0.423957     2.977247 C          1 UNL1 0.000
    30 H      -7.549381     3.224925    -0.447445 H          1 UNL1 0.000
    31 H      -6.387381     1.088567    -0.507190 H          1 UNL1 0.000
    32 H      -2.942276     2.947918     1.332408 H          1 UNL1 0.000
    33 H      -4.101352     5.081766     1.323609 H          1 UNL1 0.000
    34 H      -6.320146    -0.125836     1.568655 H          1 UNL1 0.000
    35 H      -7.397502    -2.325629     1.581147 H          1 UNL1 0.000
    36 H      -6.234836    -4.306806     0.643725 H          1 UNL1 0.000
    37 H      -3.965120    -4.052414    -0.326667 H          1 UNL1 0.000
    38 H      -2.895232    -1.868240    -0.414209 H          1 UNL1 0.000
    39 H      -6.641135     5.752118    -1.568398 H          1 UNL1 0.000
    40 H      -7.417415     6.997015    -0.578735 H          1 UNL1 0.000
    41 H      -8.174085     5.403539    -0.682390 H          1 UNL1 0.000
    42 H      -3.478393     0.686767    -2.045042 H          1 UNL1 0.000
    43 H      -2.259096     0.771503    -4.156678 H          1 UNL1 0.000
    44 H       0.223941     0.778172    -4.157170 H          1 UNL1 0.000
    45 H       1.447804     0.710638    -2.054987 H          1 UNL1 0.000
    46 H       1.427637     0.571740     3.057567 H          1 UNL1 0.000
    47 H       0.188299     0.477406     5.149804 H          1 UNL1 0.000
    48 H      -2.292704     0.384840     5.127660 H          1 UNL1 0.000
    49 H      -3.494763     0.399885     3.006378 H          1 UNL1 0.000
    50 C       1.866446     0.507294     0.496356 C          1 UNL1 0.000
    51 N       2.509358     1.704297     0.449619 N          1 UNL1 0.000
    52 C       3.863550     1.688660     0.442268 C          1 UNL1 0.000
    53 C       4.594874     0.516026     0.492140 C          1 UNL1 0.000
    54 C       3.940181    -0.712078     0.544312 C          1 UNL1 0.000
    55 C       2.547014    -0.713911     0.539241 C          1 UNL1 0.000
    56 N       6.036201     0.582852     0.492368 N          1 UNL1 0.000
    57 O       6.568023     1.352097    -0.317578 O          1 UNL1 0.000
    58 O       6.634886    -0.138606     1.301332 O          1 UNL1 0.000
    59 H       4.334111     2.667622     0.403294 H          1 UNL1 0.000
    60 H       4.490787    -1.648299     0.580895 H          1 UNL1 0.000
    61 H       1.995789    -1.649886     0.569789 H          1 UNL1 0.000
@<TRIPOS>BOND
     1      1      2   2
     2      2      3   1
     3      3      4   2
     4      4      5   1
     5      5      6   2
     6      6      1   1
     7      4      7   1
     8      7      8   1
     9      8      9   2
    10      9     10   1
    11     10     11   2
    12     11     12   1
    13     12     13   2
    14     13      8   1
    15     14     15   1
    16      1     14   1
    17     16     17   2
    18     17     18   1
    19     18     19   2
    20     19     20   1
    21     20     21   2
    22     21     16   1
    23     20     22   1
    24     22     23   2
    25     23     24   1
    26     24     25   2
    27     25     21   1
    28     23     26   1
    29     26     27   2
    30     27     28   1
    31     28     29   2
    32     29     24   1
    33      7     25   1
    34      2     30   1
    35      3     31   1
    36      5     32   1
    37      6     33   1
    38      9     34   1
    39     10     35   1
    40     11     36   1
    41     12     37   1
    42     13     38   1
    43     15     39   1
    44     15     40   1
    45     15     41   1
    46     16     42   1
    47     17     43   1
    48     18     44   1
    49     19     45   1
    50     26     46   1
    51     27     47   1
    52     28     48   1
    53     29     49   1
    54     50     51   2
    55     51     52   1
    56     52     53   2
    57     53     54   1
    58     54     55   2
    59     55     50   1
    60     56     57   2
    61     56     58   1
    62     53     56   1
    63     52     59   1
    64     54     60   1
    65     55     61   1
    66     22     50   1
