# Produced with molli package
@<TRIPOS>MOLECULE
E_4_L
56 60 0 0 0
SMALL
USER_CHARGES

@<TRIPOS>ATOM
     1 C      -5.093488     4.319860     1.632784 C          1 UNL1 0.000
     2 C      -5.725951     3.191728     1.118309 C          1 UNL1 0.000
     3 C      -5.079597     1.945913     1.151677 C          1 UNL1 0.000
     4 C      -3.807715     1.791086     1.732199 C          1 UNL1 0.000
     5 C      -3.187057     2.956383     2.225534 C          1 UNL1 0.000
     6 C      -3.826463     4.199874     2.190030 C          1 UNL1 0.000
     7 N      -3.141467     0.506588     1.805031 N          1 UNL1 0.000
     8 C      -3.835177    -0.761851     1.886701 C          1 UNL1 0.000
     9 C      -5.109255    -0.880799     2.469929 C          1 UNL1 0.000
    10 C      -5.778839    -2.109987     2.520531 C          1 UNL1 0.000
    11 C      -5.175175    -3.258047     2.017480 C          1 UNL1 0.000
    12 C      -3.898937    -3.179781     1.472995 C          1 UNL1 0.000
    13 C      -3.238325    -1.948058     1.411393 C          1 UNL1 0.000
    14 O      -5.664161     5.560383     1.695068 O          1 UNL1 0.000
    15 C      -6.291422     5.967288     0.483077 C          1 UNL1 0.000
    16 C      -1.701804     0.494428     1.794114 C          1 UNL1 0.000
    17 C      -0.983693     0.422120     2.996747 C          1 UNL1 0.000
    18 C       0.407908     0.460714     2.969912 C          1 UNL1 0.000
    19 C       1.090758     0.557951     1.758285 C          1 UNL1 0.000
    20 C       0.393506     0.583007     0.542070 C          1 UNL1 0.000
    21 C      -1.008201     0.573794     0.574442 C          1 UNL1 0.000
    22 O       1.162267     0.483263     4.111143 O          1 UNL1 0.000
    23 C       0.997172    -0.708216     4.876542 C          1 UNL1 0.000
    24 H      -6.728927     3.248974     0.708220 H          1 UNL1 0.000
    25 H      -5.590819     1.095529     0.707789 H          1 UNL1 0.000
    26 H      -2.196932     2.917477     2.671088 H          1 UNL1 0.000
    27 H      -3.327300     5.074775     2.597902 H          1 UNL1 0.000
    28 H      -5.597677    -0.017046     2.913285 H          1 UNL1 0.000
    29 H      -6.770878    -2.167647     2.961103 H          1 UNL1 0.000
    30 H      -5.693401    -4.212390     2.058247 H          1 UNL1 0.000
    31 H      -3.412553    -4.073475     1.090620 H          1 UNL1 0.000
    32 H      -2.247138    -1.932493     0.966622 H          1 UNL1 0.000
    33 H      -5.608814     5.867400    -0.367904 H          1 UNL1 0.000
    34 H      -6.549926     7.026088     0.583854 H          1 UNL1 0.000
    35 H      -7.219611     5.415959     0.307063 H          1 UNL1 0.000
    36 H      -1.520224     0.386592     3.939796 H          1 UNL1 0.000
    37 H       2.178248     0.589898     1.764743 H          1 UNL1 0.000
    38 H      -1.573995     0.619924    -0.354205 H          1 UNL1 0.000
    39 H       1.820392    -0.755868     5.596005 H          1 UNL1 0.000
    40 H       1.049735    -1.603527     4.246456 H          1 UNL1 0.000
    41 H       0.057938    -0.684617     5.437255 H          1 UNL1 0.000
    42 C       1.120728     0.591778    -0.730750 C          1 UNL1 0.000
    43 C       1.103586    -0.537972    -1.562896 C          1 UNL1 0.000
    44 C       1.816882    -0.581876    -2.766545 C          1 UNL1 0.000
    45 C       2.552628     0.553156    -3.118982 C          1 UNL1 0.000
    46 C       2.592616     1.699955    -2.327829 C          1 UNL1 0.000
    47 C       1.868773     1.717513    -1.119336 C          1 UNL1 0.000
    48 N       3.342343     0.793461    -4.221163 N          1 UNL1 0.000
    49 C       3.873906     2.054532    -4.155307 C          1 UNL1 0.000
    50 C       3.425966     2.640153    -2.993932 C          1 UNL1 0.000
    51 H       0.535332    -1.417774    -1.264071 H          1 UNL1 0.000
    52 H       1.799598    -1.468406    -3.391334 H          1 UNL1 0.000
    53 H       1.892593     2.603630    -0.490517 H          1 UNL1 0.000
    54 H       3.502468     0.130846    -4.966013 H          1 UNL1 0.000
    55 H       4.523241     2.424088    -4.937522 H          1 UNL1 0.000
    56 H       3.670677     3.637876    -2.653821 H          1 UNL1 0.000
@<TRIPOS>BOND
     1      1      2   2
     2      2      3   1
     3      3      4   2
     4      4      5   1
     5      5      6   2
     6      6      1   1
     7      4      7   1
     8      7      8   1
     9      8      9   2
    10      9     10   1
    11     10     11   2
    12     11     12   1
    13     12     13   2
    14     13      8   1
    15     14     15   1
    16      1     14   1
    17     16     17   2
    18     17     18   1
    19     18     19   2
    20     19     20   1
    21     20     21   2
    22     21     16   1
    23     22     23   1
    24     18     22   1
    25      7     16   1
    26      2     24   1
    27      3     25   1
    28      5     26   1
    29      6     27   1
    30      9     28   1
    31     10     29   1
    32     11     30   1
    33     12     31   1
    34     13     32   1
    35     15     33   1
    36     15     34   1
    37     15     35   1
    38     17     36   1
    39     19     37   1
    40     21     38   1
    41     23     39   1
    42     23     40   1
    43     23     41   1
    44     42     43   2
    45     43     44   1
    46     44     45   2
    47     45     46   1
    48     46     47   2
    49     47     42   1
    50     45     48   1
    51     48     49   1
    52     49     50   2
    53     50     46   1
    54     43     51   1
    55     44     52   1
    56     47     53   1
    57     48     54   1
    58     49     55   1
    59     50     56   1
    60     20     42   1
