# Produced with molli package
@<TRIPOS>MOLECULE
E_4_P
56 59 0 0 0
SMALL
USER_CHARGES

@<TRIPOS>ATOM
     1 C      -5.117767     4.274168     1.608717 C          1 UNL1 0.000
     2 C      -5.714292     3.139719     1.065638 C          1 UNL1 0.000
     3 C      -5.048874     1.904922     1.111807 C          1 UNL1 0.000
     4 C      -3.790164     1.770203     1.725728 C          1 UNL1 0.000
     5 C      -3.205806     2.938859     2.250655 C          1 UNL1 0.000
     6 C      -3.867563     4.170177     2.207770 C          1 UNL1 0.000
     7 N      -3.105380     0.497799     1.799553 N          1 UNL1 0.000
     8 C      -3.787222    -0.775404     1.888482 C          1 UNL1 0.000
     9 C      -5.043895    -0.902590     2.506801 C          1 UNL1 0.000
    10 C      -5.699372    -2.137680     2.580008 C          1 UNL1 0.000
    11 C      -5.101779    -3.280153     2.056770 C          1 UNL1 0.000
    12 C      -3.845847    -3.190441     1.467771 C          1 UNL1 0.000
    13 C      -3.196686    -1.953989     1.388760 C          1 UNL1 0.000
    14 O      -5.704753     5.507746     1.658052 O          1 UNL1 0.000
    15 C      -6.343531     5.896233     0.446156 C          1 UNL1 0.000
    16 C      -1.666953     0.500471     1.786744 C          1 UNL1 0.000
    17 C      -0.945499     0.438022     2.986232 C          1 UNL1 0.000
    18 C       0.444568     0.464608     2.949364 C          1 UNL1 0.000
    19 C       1.127902     0.534468     1.735901 C          1 UNL1 0.000
    20 C       0.426858     0.551065     0.521471 C          1 UNL1 0.000
    21 C      -0.976083     0.563056     0.563907 C          1 UNL1 0.000
    22 O       1.173762     0.492729     4.106205 O          1 UNL1 0.000
    23 C       1.320961    -0.824581     4.634840 C          1 UNL1 0.000
    24 H      -6.703642     3.182320     0.621957 H          1 UNL1 0.000
    25 H      -5.530853     1.046260     0.650961 H          1 UNL1 0.000
    26 H      -2.230319     2.910057     2.728105 H          1 UNL1 0.000
    27 H      -3.398940     5.049513     2.641398 H          1 UNL1 0.000
    28 H      -5.524976    -0.040529     2.961669 H          1 UNL1 0.000
    29 H      -6.675048    -2.204662     3.054450 H          1 UNL1 0.000
    30 H      -5.609225    -4.239353     2.115351 H          1 UNL1 0.000
    31 H      -3.366503    -4.079284     1.065757 H          1 UNL1 0.000
    32 H      -2.221198    -1.927973     0.911273 H          1 UNL1 0.000
    33 H      -5.668889     5.785635    -0.409874 H          1 UNL1 0.000
    34 H      -6.603050     6.955920     0.534076 H          1 UNL1 0.000
    35 H      -7.272305     5.340569     0.287565 H          1 UNL1 0.000
    36 H      -1.470673     0.403830     3.935826 H          1 UNL1 0.000
    37 H       2.215353     0.547394     1.742619 H          1 UNL1 0.000
    38 H      -1.547919     0.601956    -0.361648 H          1 UNL1 0.000
    39 H       2.179094    -0.816273     5.313842 H          1 UNL1 0.000
    40 H       1.518759    -1.567548     3.853163 H          1 UNL1 0.000
    41 H       0.431410    -1.103101     5.208268 H          1 UNL1 0.000
    42 C       1.145472     0.507888    -0.757471 C          1 UNL1 0.000
    43 C       2.058188     1.511840    -1.115624 C          1 UNL1 0.000
    44 C       2.773336     1.436464    -2.315384 C          1 UNL1 0.000
    45 C       2.592586     0.345578    -3.163678 C          1 UNL1 0.000
    46 C       1.664248    -0.640388    -2.843446 C          1 UNL1 0.000
    47 C       0.952732    -0.564463    -1.644558 C          1 UNL1 0.000
    48 O       3.250666     0.206398    -4.354702 O          1 UNL1 0.000
    49 C       4.665748     0.313427    -4.211966 C          1 UNL1 0.000
    50 H       2.210477     2.368239    -0.461585 H          1 UNL1 0.000
    51 H       3.451298     2.242041    -2.578456 H          1 UNL1 0.000
    52 H       1.508059    -1.478663    -3.516494 H          1 UNL1 0.000
    53 H       0.255200    -1.361871    -1.396254 H          1 UNL1 0.000
    54 H       5.122140    -0.053111    -5.136427 H          1 UNL1 0.000
    55 H       5.033673    -0.307590    -3.386914 H          1 UNL1 0.000
    56 H       4.971382     1.355519    -4.078269 H          1 UNL1 0.000
@<TRIPOS>BOND
     1      1      2   2
     2      2      3   1
     3      3      4   2
     4      4      5   1
     5      5      6   2
     6      6      1   1
     7      4      7   1
     8      7      8   1
     9      8      9   2
    10      9     10   1
    11     10     11   2
    12     11     12   1
    13     12     13   2
    14     13      8   1
    15     14     15   1
    16      1     14   1
    17     16     17   2
    18     17     18   1
    19     18     19   2
    20     19     20   1
    21     20     21   2
    22     21     16   1
    23     22     23   1
    24     18     22   1
    25      7     16   1
    26      2     24   1
    27      3     25   1
    28      5     26   1
    29      6     27   1
    30      9     28   1
    31     10     29   1
    32     11     30   1
    33     12     31   1
    34     13     32   1
    35     15     33   1
    36     15     34   1
    37     15     35   1
    38     17     36   1
    39     19     37   1
    40     21     38   1
    41     23     39   1
    42     23     40   1
    43     23     41   1
    44     42     43   2
    45     43     44   1
    46     44     45   2
    47     45     46   1
    48     46     47   2
    49     47     42   1
    50     48     49   1
    51     45     48   1
    52     43     50   1
    53     44     51   1
    54     46     52   1
    55     47     53   1
    56     49     54   1
    57     49     55   1
    58     49     56   1
    59     20     42   1
