# Produced with molli package
@<TRIPOS>MOLECULE
E_4_S
57 60 0 0 0
SMALL
USER_CHARGES

@<TRIPOS>ATOM
     1 C      -5.139413     4.343511     1.647315 C          1 UNL1 0.000
     2 C      -5.767932     3.224122     1.109627 C          1 UNL1 0.000
     3 C      -5.120670     1.977993     1.122760 C          1 UNL1 0.000
     4 C      -3.855714     1.811282     1.713010 C          1 UNL1 0.000
     5 C      -3.238921     2.970720     2.228608 C          1 UNL1 0.000
     6 C      -3.875966     4.215612     2.208637 C          1 UNL1 0.000
     7 N      -3.186897     0.527064     1.772381 N          1 UNL1 0.000
     8 C      -3.863206    -0.755065     1.832226 C          1 UNL1 0.000
     9 C      -5.173296    -0.897368     2.320733 C          1 UNL1 0.000
    10 C      -5.815523    -2.143147     2.346103 C          1 UNL1 0.000
    11 C      -5.147731    -3.287286     1.921664 C          1 UNL1 0.000
    12 C      -3.834915    -3.188676     1.480336 C          1 UNL1 0.000
    13 C      -3.204488    -1.940525     1.436824 C          1 UNL1 0.000
    14 O      -5.717481     5.579187     1.730776 O          1 UNL1 0.000
    15 C      -6.287601     6.025473     0.504358 C          1 UNL1 0.000
    16 C      -1.747991     0.526403     1.793306 C          1 UNL1 0.000
    17 C      -1.058849     0.458924     3.009751 C          1 UNL1 0.000
    18 C       0.330939     0.456077     3.011978 C          1 UNL1 0.000
    19 C       1.050293     0.511850     1.817238 C          1 UNL1 0.000
    20 C       0.376736     0.551977     0.586815 C          1 UNL1 0.000
    21 C      -1.026216     0.580629     0.589277 C          1 UNL1 0.000
    22 O       0.977199     0.469397     4.215590 O          1 UNL1 0.000
    23 C       1.515903    -0.814077     4.530807 C          1 UNL1 0.000
    24 H      -6.769613     3.289211     0.697305 H          1 UNL1 0.000
    25 H      -5.627763     1.138105     0.655398 H          1 UNL1 0.000
    26 H      -2.252591     2.926604     2.681978 H          1 UNL1 0.000
    27 H      -3.379196     5.083274     2.634366 H          1 UNL1 0.000
    28 H      -5.716904    -0.042928     2.713542 H          1 UNL1 0.000
    29 H      -6.837628    -2.216953     2.708716 H          1 UNL1 0.000
    30 H      -5.643864    -4.253770     1.946312 H          1 UNL1 0.000
    31 H      -3.294949    -4.078119     1.165886 H          1 UNL1 0.000
    32 H      -2.180120    -1.916438     1.075713 H          1 UNL1 0.000
    33 H      -5.556346     5.977840    -0.309941 H          1 UNL1 0.000
    34 H      -6.576726     7.072886     0.635932 H          1 UNL1 0.000
    35 H      -7.190768     5.462652     0.251646 H          1 UNL1 0.000
    36 H      -1.607558     0.428564     3.946614 H          1 UNL1 0.000
    37 H       2.137001     0.515805     1.846520 H          1 UNL1 0.000
    38 H      -1.572770     0.622652    -0.351281 H          1 UNL1 0.000
    39 H       2.605421    -0.731898     4.583988 H          1 UNL1 0.000
    40 H       1.247831    -1.599921     3.814319 H          1 UNL1 0.000
    41 H       1.142513    -1.105224     5.517410 H          1 UNL1 0.000
    42 C       1.116024     0.530051    -0.677416 C          1 UNL1 0.000
    43 C       1.177828    -0.643891    -1.440801 C          1 UNL1 0.000
    44 C       1.891369    -0.678945    -2.642247 C          1 UNL1 0.000
    45 C       2.555429     0.462299    -3.111068 C          1 UNL1 0.000
    46 C       2.479633     1.643752    -2.365730 C          1 UNL1 0.000
    47 C       1.772124     1.672019    -1.155664 C          1 UNL1 0.000
    48 C       3.311020     0.350508    -4.396913 C          1 UNL1 0.000
    49 C       4.160377     1.497213    -4.882603 C          1 UNL1 0.000
    50 O       3.220726    -0.678371    -5.063681 O          1 UNL1 0.000
    51 H       0.673605    -1.546390    -1.099613 H          1 UNL1 0.000
    52 H       1.926014    -1.607676    -3.209867 H          1 UNL1 0.000
    53 H       2.951202     2.563364    -2.696506 H          1 UNL1 0.000
    54 H       1.726807     2.599913    -0.587419 H          1 UNL1 0.000
    55 H       5.056740     1.087028    -5.359041 H          1 UNL1 0.000
    56 H       4.506354     2.142143    -4.074563 H          1 UNL1 0.000
    57 H       3.595727     2.080861    -5.613823 H          1 UNL1 0.000
@<TRIPOS>BOND
     1      1      2   2
     2      2      3   1
     3      3      4   2
     4      4      5   1
     5      5      6   2
     6      6      1   1
     7      4      7   1
     8      7      8   1
     9      8      9   2
    10      9     10   1
    11     10     11   2
    12     11     12   1
    13     12     13   2
    14     13      8   1
    15     14     15   1
    16      1     14   1
    17     16     17   2
    18     17     18   1
    19     18     19   2
    20     19     20   1
    21     20     21   2
    22     21     16   1
    23     22     23   1
    24     18     22   1
    25      7     16   1
    26      2     24   1
    27      3     25   1
    28      5     26   1
    29      6     27   1
    30      9     28   1
    31     10     29   1
    32     11     30   1
    33     12     31   1
    34     13     32   1
    35     15     33   1
    36     15     34   1
    37     15     35   1
    38     17     36   1
    39     19     37   1
    40     21     38   1
    41     23     39   1
    42     23     40   1
    43     23     41   1
    44     42     43   2
    45     43     44   1
    46     44     45   2
    47     45     46   1
    48     46     47   2
    49     47     42   1
    50     45     48   1
    51     48     49   1
    52     48     50   2
    53     43     51   1
    54     44     52   1
    55     46     53   1
    56     47     54   1
    57     49     55   1
    58     49     56   1
    59     49     57   1
    60     20     42   1
