# Produced with molli package
@<TRIPOS>MOLECULE
E_4_R
53 56 0 0 0
SMALL
USER_CHARGES

@<TRIPOS>ATOM
     1 C      -5.033075     4.313198     1.571299 C          1 UNL1 0.000
     2 C      -5.615706     3.208272     0.955177 C          1 UNL1 0.000
     3 C      -4.973394     1.959488     0.989967 C          1 UNL1 0.000
     4 C      -3.749597     1.780914     1.658490 C          1 UNL1 0.000
     5 C      -3.174412     2.918544     2.254631 C          1 UNL1 0.000
     6 C      -3.814076     4.161294     2.224218 C          1 UNL1 0.000
     7 N      -3.086498     0.496378     1.714042 N          1 UNL1 0.000
     8 C      -3.789714    -0.764984     1.805468 C          1 UNL1 0.000
     9 C      -5.076979    -0.860061     2.365169 C          1 UNL1 0.000
    10 C      -5.752347    -2.084193     2.443124 C          1 UNL1 0.000
    11 C      -5.144886    -3.248977     1.985593 C          1 UNL1 0.000
    12 C      -3.860883    -3.191305     1.455979 C          1 UNL1 0.000
    13 C      -3.192407    -1.965107     1.369232 C          1 UNL1 0.000
    14 O      -5.569182     5.568577     1.634254 O          1 UNL1 0.000
    15 C      -6.442408     5.923706     0.569710 C          1 UNL1 0.000
    16 C      -1.647873     0.485345     1.708071 C          1 UNL1 0.000
    17 C      -0.934944     0.434073     2.913587 C          1 UNL1 0.000
    18 C       0.454263     0.497139     2.891879 C          1 UNL1 0.000
    19 C       1.144430     0.601635     1.685524 C          1 UNL1 0.000
    20 C       0.454887     0.607843     0.462701 C          1 UNL1 0.000
    21 C      -0.948041     0.560994     0.491236 C          1 UNL1 0.000
    22 O       1.182527     0.549802     4.048704 O          1 UNL1 0.000
    23 C       1.210927    -0.725996     4.686894 C          1 UNL1 0.000
    24 H      -6.575101     3.278535     0.453708 H          1 UNL1 0.000
    25 H      -5.442589     1.124877     0.474133 H          1 UNL1 0.000
    26 H      -2.225267     2.856577     2.778648 H          1 UNL1 0.000
    27 H      -3.350898     5.015632     2.711359 H          1 UNL1 0.000
    28 H      -5.570434     0.018814     2.771597 H          1 UNL1 0.000
    29 H      -6.751110    -2.124554     2.870134 H          1 UNL1 0.000
    30 H      -5.666965    -4.199997     2.048646 H          1 UNL1 0.000
    31 H      -3.373762    -4.097576     1.105232 H          1 UNL1 0.000
    32 H      -2.195037    -1.965853     0.936884 H          1 UNL1 0.000
    33 H      -5.961217     5.770924    -0.402213 H          1 UNL1 0.000
    34 H      -6.666896     6.990467     0.667903 H          1 UNL1 0.000
    35 H      -7.389282     5.379373     0.632630 H          1 UNL1 0.000
    36 H      -1.471202     0.393174     3.856895 H          1 UNL1 0.000
    37 H       2.230742     0.649453     1.706478 H          1 UNL1 0.000
    38 H      -1.508366     0.575338    -0.442348 H          1 UNL1 0.000
    39 H       1.952001    -0.678216     5.490564 H          1 UNL1 0.000
    40 H       1.518897    -1.514497     3.990751 H          1 UNL1 0.000
    41 H       0.240170    -0.963756     5.133029 H          1 UNL1 0.000
    42 C       1.183340     0.638419    -0.808508 C          1 UNL1 0.000
    43 N       0.932269    -0.398062    -1.652572 N          1 UNL1 0.000
    44 C       1.636402    -0.454476    -2.809542 C          1 UNL1 0.000
    45 C       2.581175     0.494638    -3.156573 C          1 UNL1 0.000
    46 C       2.824637     1.568609    -2.304058 C          1 UNL1 0.000
    47 C       2.109943     1.639760    -1.109210 C          1 UNL1 0.000
    48 N       3.315410     0.347801    -4.394181 N          1 UNL1 0.000
    49 O       4.502129     0.708813    -4.394776 O          1 UNL1 0.000
    50 O       2.712905    -0.127029    -5.363204 O          1 UNL1 0.000
    51 H       1.415119    -1.313239    -3.438040 H          1 UNL1 0.000
    52 H       3.553083     2.336598    -2.551377 H          1 UNL1 0.000
    53 H       2.275197     2.464152    -0.421088 H          1 UNL1 0.000
@<TRIPOS>BOND
     1      1      2   2
     2      2      3   1
     3      3      4   2
     4      4      5   1
     5      5      6   2
     6      6      1   1
     7      4      7   1
     8      7      8   1
     9      8      9   2
    10      9     10   1
    11     10     11   2
    12     11     12   1
    13     12     13   2
    14     13      8   1
    15     14     15   1
    16      1     14   1
    17     16     17   2
    18     17     18   1
    19     18     19   2
    20     19     20   1
    21     20     21   2
    22     21     16   1
    23     22     23   1
    24     18     22   1
    25      7     16   1
    26      2     24   1
    27      3     25   1
    28      5     26   1
    29      6     27   1
    30      9     28   1
    31     10     29   1
    32     11     30   1
    33     12     31   1
    34     13     32   1
    35     15     33   1
    36     15     34   1
    37     15     35   1
    38     17     36   1
    39     19     37   1
    40     21     38   1
    41     23     39   1
    42     23     40   1
    43     23     41   1
    44     42     43   2
    45     43     44   1
    46     44     45   2
    47     45     46   1
    48     46     47   2
    49     47     42   1
    50     48     49   2
    51     48     50   1
    52     45     48   1
    53     44     51   1
    54     46     52   1
    55     47     53   1
    56     20     42   1
