# Produced with molli package
@<TRIPOS>MOLECULE
E_4_K
54 57 0 0 0
SMALL
USER_CHARGES

@<TRIPOS>ATOM
     1 C      -5.215049     4.204629     2.025930 C          1 UNL1 0.000
     2 C      -5.802517     3.066824     2.566314 C          1 UNL1 0.000
     3 C      -5.122820     1.842849     2.528401 C          1 UNL1 0.000
     4 C      -3.848029     1.730399     1.943435 C          1 UNL1 0.000
     5 C      -3.251796     2.918504     1.472032 C          1 UNL1 0.000
     6 C      -3.924434     4.144203     1.514663 C          1 UNL1 0.000
     7 N      -3.156219     0.461774     1.854071 N          1 UNL1 0.000
     8 C      -3.832364    -0.812892     1.748786 C          1 UNL1 0.000
     9 C      -5.085033    -0.942201     1.123168 C          1 UNL1 0.000
    10 C      -5.735619    -2.179050     1.043136 C          1 UNL1 0.000
    11 C      -5.135077    -3.320885     1.564423 C          1 UNL1 0.000
    12 C      -3.881290    -3.228741     2.158123 C          1 UNL1 0.000
    13 C      -3.237787    -1.990121     2.245960 C          1 UNL1 0.000
    14 O      -5.916101     5.377284     2.083714 O          1 UNL1 0.000
    15 C      -6.183309     5.885363     0.775786 C          1 UNL1 0.000
    16 C      -1.718537     0.469269     1.814339 C          1 UNL1 0.000
    17 C      -0.981460     0.580432     2.999156 C          1 UNL1 0.000
    18 C       0.407309     0.576592     2.941770 C          1 UNL1 0.000
    19 C       1.072331     0.553962     1.716880 C          1 UNL1 0.000
    20 C       0.355319     0.464089     0.513872 C          1 UNL1 0.000
    21 C      -1.045246     0.388140     0.581113 C          1 UNL1 0.000
    22 O       1.153876     0.649716     4.085926 O          1 UNL1 0.000
    23 C       1.225894    -0.638283     4.701163 C          1 UNL1 0.000
    24 H      -6.791601     3.126349     3.011536 H          1 UNL1 0.000
    25 H      -5.603397     0.977645     2.977821 H          1 UNL1 0.000
    26 H      -2.251639     2.911105     1.047676 H          1 UNL1 0.000
    27 H      -3.426775     5.039497     1.154875 H          1 UNL1 0.000
    28 H      -5.568679    -0.080205     0.671036 H          1 UNL1 0.000
    29 H      -6.710462    -2.247731     0.567187 H          1 UNL1 0.000
    30 H      -5.639712    -4.281400     1.502032 H          1 UNL1 0.000
    31 H      -3.400925    -4.117490     2.559102 H          1 UNL1 0.000
    32 H      -2.265756    -1.958501     2.730201 H          1 UNL1 0.000
    33 H      -5.267427     6.215901     0.275098 H          1 UNL1 0.000
    34 H      -6.837719     6.755788     0.881579 H          1 UNL1 0.000
    35 H      -6.706506     5.141061     0.164454 H          1 UNL1 0.000
    36 H      -1.492941     0.653536     3.954182 H          1 UNL1 0.000
    37 H       2.159243     0.595992     1.707826 H          1 UNL1 0.000
    38 H      -1.633849     0.319890    -0.332086 H          1 UNL1 0.000
    39 H       1.974208    -0.589074     5.497619 H          1 UNL1 0.000
    40 H       1.542929    -1.409130     3.988425 H          1 UNL1 0.000
    41 H       0.265127    -0.909555     5.151361 H          1 UNL1 0.000
    42 C       1.058359     0.477970    -0.776429 C          1 UNL1 0.000
    43 C       0.919559    -0.578227    -1.692389 C          1 UNL1 0.000
    44 C       1.609867    -0.570871    -2.909461 C          1 UNL1 0.000
    45 C       2.447824     0.506883    -3.219709 C          1 UNL1 0.000
    46 C       2.592347     1.575406    -2.329936 C          1 UNL1 0.000
    47 C       1.898122     1.554839    -1.117256 C          1 UNL1 0.000
    48 N       3.185588     0.512306    -4.486725 N          1 UNL1 0.000
    49 O       2.843538    -0.298873    -5.356421 O          1 UNL1 0.000
    50 O       4.111175     1.330045    -4.609036 O          1 UNL1 0.000
    51 H       0.280240    -1.427040    -1.452960 H          1 UNL1 0.000
    52 H       1.490827    -1.409290    -3.592415 H          1 UNL1 0.000
    53 H       3.233660     2.423698    -2.560673 H          1 UNL1 0.000
    54 H       2.011496     2.394529    -0.432008 H          1 UNL1 0.000
@<TRIPOS>BOND
     1      1      2   2
     2      2      3   1
     3      3      4   2
     4      4      5   1
     5      5      6   2
     6      6      1   1
     7      4      7   1
     8      7      8   1
     9      8      9   2
    10      9     10   1
    11     10     11   2
    12     11     12   1
    13     12     13   2
    14     13      8   1
    15     14     15   1
    16      1     14   1
    17     16     17   2
    18     17     18   1
    19     18     19   2
    20     19     20   1
    21     20     21   2
    22     21     16   1
    23     22     23   1
    24     18     22   1
    25      7     16   1
    26      2     24   1
    27      3     25   1
    28      5     26   1
    29      6     27   1
    30      9     28   1
    31     10     29   1
    32     11     30   1
    33     12     31   1
    34     13     32   1
    35     15     33   1
    36     15     34   1
    37     15     35   1
    38     17     36   1
    39     19     37   1
    40     21     38   1
    41     23     39   1
    42     23     40   1
    43     23     41   1
    44     42     43   2
    45     43     44   1
    46     44     45   2
    47     45     46   1
    48     46     47   2
    49     47     42   1
    50     48     49   2
    51     48     50   1
    52     45     48   1
    53     43     51   1
    54     44     52   1
    55     46     53   1
    56     47     54   1
    57     20     42   1
