# Produced with molli package
@<TRIPOS>MOLECULE
E_4_O
51 54 0 0 0
SMALL
USER_CHARGES

@<TRIPOS>ATOM
     1 C      -5.210207     4.387145     1.562714 C          1 UNL1 0.000
     2 C      -5.814841     3.258542     1.015889 C          1 UNL1 0.000
     3 C      -5.153367     2.021012     1.050058 C          1 UNL1 0.000
     4 C      -3.892363     1.877876     1.657228 C          1 UNL1 0.000
     5 C      -3.298234     3.042835     2.180636 C          1 UNL1 0.000
     6 C      -3.955500     4.276697     2.149726 C          1 UNL1 0.000
     7 N      -3.218339     0.599324     1.731267 N          1 UNL1 0.000
     8 C      -3.909500    -0.664734     1.869716 C          1 UNL1 0.000
     9 C      -5.167564    -0.762276     2.490992 C          1 UNL1 0.000
    10 C      -5.825398    -1.991708     2.619066 C          1 UNL1 0.000
    11 C      -5.228331    -3.157626     2.149905 C          1 UNL1 0.000
    12 C      -3.972537    -3.095860     1.556829 C          1 UNL1 0.000
    13 C      -3.322073    -1.864954     1.420197 C          1 UNL1 0.000
    14 O      -5.800287     5.618337     1.631066 O          1 UNL1 0.000
    15 C      -6.394025     6.039628     0.407273 C          1 UNL1 0.000
    16 C      -1.779580     0.590328     1.743144 C          1 UNL1 0.000
    17 C      -1.081855     0.543227     2.958039 C          1 UNL1 0.000
    18 C       0.308248     0.578489     2.951596 C          1 UNL1 0.000
    19 C       1.016482     0.653002     1.753532 C          1 UNL1 0.000
    20 C       0.340163     0.656910     0.524546 C          1 UNL1 0.000
    21 C      -1.063745     0.640715     0.534613 C          1 UNL1 0.000
    22 O       1.012307     0.615716     4.123696 O          1 UNL1 0.000
    23 C       1.141270    -0.698771     4.664847 C          1 UNL1 0.000
    24 H      -6.808220     3.308811     0.582170 H          1 UNL1 0.000
    25 H      -5.641326     1.164909     0.590210 H          1 UNL1 0.000
    26 H      -2.320348     3.008512     2.652164 H          1 UNL1 0.000
    27 H      -3.481462     5.151484     2.586599 H          1 UNL1 0.000
    28 H      -5.648176     0.118541     2.908441 H          1 UNL1 0.000
    29 H      -6.801537    -2.035573     3.095077 H          1 UNL1 0.000
    30 H      -5.736128    -4.112785     2.253172 H          1 UNL1 0.000
    31 H      -3.492949    -4.002099     1.195910 H          1 UNL1 0.000
    32 H      -2.346898    -1.860560     0.939313 H          1 UNL1 0.000
    33 H      -5.686709     5.955770    -0.425076 H          1 UNL1 0.000
    34 H      -6.660828     7.095620     0.515849 H          1 UNL1 0.000
    35 H      -7.313521     5.485806     0.196944 H          1 UNL1 0.000
    36 H      -1.627334     0.514184     3.896493 H          1 UNL1 0.000
    37 H       2.103199     0.676344     1.782068 H          1 UNL1 0.000
    38 H      -1.609399     0.648496    -0.407416 H          1 UNL1 0.000
    39 H       1.944664    -0.674996     5.407377 H          1 UNL1 0.000
    40 H       1.413247    -1.434840     3.899199 H          1 UNL1 0.000
    41 H       0.216532    -0.996250     5.169199 H          1 UNL1 0.000
    42 C       1.083601     0.645011    -0.736705 C          1 UNL1 0.000
    43 N       0.928703    -0.470283    -1.492517 N          1 UNL1 0.000
    44 C       1.641961    -0.548521    -2.637063 C          1 UNL1 0.000
    45 C       2.499760     0.443600    -3.079569 C          1 UNL1 0.000
    46 C       2.636135     1.587448    -2.303200 C          1 UNL1 0.000
    47 C       1.922951     1.691475    -1.111450 C          1 UNL1 0.000
    48 H       1.503468    -1.463850    -3.205112 H          1 UNL1 0.000
    49 H       3.048531     0.326720    -4.007372 H          1 UNL1 0.000
    50 H       3.295199     2.391047    -2.618387 H          1 UNL1 0.000
    51 H       2.019513     2.574898    -0.488861 H          1 UNL1 0.000
@<TRIPOS>BOND
     1      1      2   2
     2      2      3   1
     3      3      4   2
     4      4      5   1
     5      5      6   2
     6      6      1   1
     7      4      7   1
     8      7      8   1
     9      8      9   2
    10      9     10   1
    11     10     11   2
    12     11     12   1
    13     12     13   2
    14     13      8   1
    15     14     15   1
    16      1     14   1
    17     16     17   2
    18     17     18   1
    19     18     19   2
    20     19     20   1
    21     20     21   2
    22     21     16   1
    23     22     23   1
    24     18     22   1
    25      7     16   1
    26      2     24   1
    27      3     25   1
    28      5     26   1
    29      6     27   1
    30      9     28   1
    31     10     29   1
    32     11     30   1
    33     12     31   1
    34     13     32   1
    35     15     33   1
    36     15     34   1
    37     15     35   1
    38     17     36   1
    39     19     37   1
    40     21     38   1
    41     23     39   1
    42     23     40   1
    43     23     41   1
    44     42     43   2
    45     43     44   1
    46     44     45   2
    47     45     46   1
    48     46     47   2
    49     47     42   1
    50     44     48   1
    51     45     49   1
    52     46     50   1
    53     47     51   1
    54     20     42   1
