# Produced with molli package
@<TRIPOS>MOLECULE
E_4_N
49 52 0 0 0
SMALL
USER_CHARGES

@<TRIPOS>ATOM
     1 C      -5.128252     4.322935     1.942807 C          1 UNL1 0.000
     2 C      -5.683848     3.233698     2.604776 C          1 UNL1 0.000
     3 C      -5.034983     1.994443     2.575496 C          1 UNL1 0.000
     4 C      -3.817842     1.825209     1.890277 C          1 UNL1 0.000
     5 C      -3.248123     2.962727     1.285133 C          1 UNL1 0.000
     6 C      -3.895901     4.201773     1.310079 C          1 UNL1 0.000
     7 N      -3.162323     0.539176     1.828283 N          1 UNL1 0.000
     8 C      -3.889532    -0.704885     1.729728 C          1 UNL1 0.000
     9 C      -5.139030    -0.779753     1.087807 C          1 UNL1 0.000
    10 C      -5.843824    -1.985283     1.006617 C          1 UNL1 0.000
    11 C      -5.306295    -3.146481     1.553371 C          1 UNL1 0.000
    12 C      -4.061253    -3.105012     2.172852 C          1 UNL1 0.000
    13 C      -3.358993    -1.898338     2.255274 C          1 UNL1 0.000
    14 O      -5.794262     5.516014     2.000976 O          1 UNL1 0.000
    15 C      -6.213058     5.936460     0.702094 C          1 UNL1 0.000
    16 C      -1.726547     0.504066     1.794253 C          1 UNL1 0.000
    17 C      -0.987553     0.676287     2.972301 C          1 UNL1 0.000
    18 C       0.403506     0.655760     2.920822 C          1 UNL1 0.000
    19 C       1.073487     0.554386     1.703489 C          1 UNL1 0.000
    20 C       0.344979     0.393961     0.520868 C          1 UNL1 0.000
    21 C      -1.053234     0.335838     0.572596 C          1 UNL1 0.000
    22 O       1.136723     0.802927     4.066870 O          1 UNL1 0.000
    23 C       1.295328    -0.466395     4.704210 C          1 UNL1 0.000
    24 H      -6.623579     3.343688     3.138131 H          1 UNL1 0.000
    25 H      -5.485063     1.161038     3.109389 H          1 UNL1 0.000
    26 H      -2.296023     2.898120     0.765508 H          1 UNL1 0.000
    27 H      -3.425220     5.060956     0.842172 H          1 UNL1 0.000
    28 H      -5.573901     0.101942     0.623665 H          1 UNL1 0.000
    29 H      -6.810732    -2.014194     0.510991 H          1 UNL1 0.000
    30 H      -5.854106    -4.083106     1.492007 H          1 UNL1 0.000
    31 H      -3.633945    -4.009669     2.597504 H          1 UNL1 0.000
    32 H      -2.396044    -1.900777     2.758663 H          1 UNL1 0.000
    33 H      -5.360313     6.202279     0.068919 H          1 UNL1 0.000
    34 H      -6.830601     6.831524     0.823208 H          1 UNL1 0.000
    35 H      -6.824629     5.166621     0.217669 H          1 UNL1 0.000
    36 H      -1.498589     0.815629     3.920377 H          1 UNL1 0.000
    37 H       2.159323     0.596701     1.685630 H          1 UNL1 0.000
    38 H      -1.634315     0.224934    -0.340436 H          1 UNL1 0.000
    39 H       2.000377    -0.341742     5.531421 H          1 UNL1 0.000
    40 H       1.710266    -1.213608     4.017408 H          1 UNL1 0.000
    41 H       0.343452    -0.817469     5.117173 H          1 UNL1 0.000
    42 C       1.038308     0.354594    -0.756135 C          1 UNL1 0.000
    43 C       0.919716    -0.714872    -1.621065 C          1 UNL1 0.000
    44 S       1.833154    -0.497056    -3.053645 S          1 UNL1 0.000
    45 C       2.392381     1.032473    -2.531934 C          1 UNL1 0.000
    46 C       1.900476     1.364971    -1.289237 C          1 UNL1 0.000
    47 H       0.346265    -1.622144    -1.486442 H          1 UNL1 0.000
    48 H       3.052902     1.614936    -3.159559 H          1 UNL1 0.000
    49 H       2.135173     2.297792    -0.789892 H          1 UNL1 0.000
@<TRIPOS>BOND
     1      1      2   2
     2      2      3   1
     3      3      4   2
     4      4      5   1
     5      5      6   2
     6      6      1   1
     7      4      7   1
     8      7      8   1
     9      8      9   2
    10      9     10   1
    11     10     11   2
    12     11     12   1
    13     12     13   2
    14     13      8   1
    15     14     15   1
    16      1     14   1
    17     16     17   2
    18     17     18   1
    19     18     19   2
    20     19     20   1
    21     20     21   2
    22     21     16   1
    23     22     23   1
    24     18     22   1
    25      7     16   1
    26      2     24   1
    27      3     25   1
    28      5     26   1
    29      6     27   1
    30      9     28   1
    31     10     29   1
    32     11     30   1
    33     12     31   1
    34     13     32   1
    35     15     33   1
    36     15     34   1
    37     15     35   1
    38     17     36   1
    39     19     37   1
    40     21     38   1
    41     23     39   1
    42     23     40   1
    43     23     41   1
    44     42     43   2
    45     43     44   1
    46     44     45   1
    47     45     46   2
    48     46     42   1
    49     43     47   1
    50     45     48   1
    51     46     49   1
    52     20     42   1
