# Produced with molli package
@<TRIPOS>MOLECULE
E_4_M
53 56 0 0 0
SMALL
USER_CHARGES

@<TRIPOS>ATOM
     1 C      -5.133578     4.352903     1.812051 C          1 UNL1 0.000
     2 C      -5.783746     3.217268     2.276452 C          1 UNL1 0.000
     3 C      -5.127767     1.978249     2.256444 C          1 UNL1 0.000
     4 C      -3.826602     1.840574     1.739785 C          1 UNL1 0.000
     5 C      -3.175005     3.031849     1.345553 C          1 UNL1 0.000
     6 C      -3.814134     4.275760     1.389957 C          1 UNL1 0.000
     7 N      -3.148278     0.559522     1.643648 N          1 UNL1 0.000
     8 C      -3.812508    -0.729698     1.567992 C          1 UNL1 0.000
     9 C      -5.129516    -0.883423     1.101626 C          1 UNL1 0.000
    10 C      -5.770926    -2.130131     1.105421 C          1 UNL1 0.000
    11 C      -5.089838    -3.268998     1.520754 C          1 UNL1 0.000
    12 C      -3.763598    -3.164264     1.917947 C          1 UNL1 0.000
    13 C      -3.137372    -1.913013     1.942044 C          1 UNL1 0.000
    14 O      -5.787742     5.552480     1.853104 O          1 UNL1 0.000
    15 C      -6.178409     5.947249     0.536586 C          1 UNL1 0.000
    16 C      -1.706478     0.569743     1.654224 C          1 UNL1 0.000
    17 C      -1.012933     0.683609     2.866552 C          1 UNL1 0.000
    18 C       0.376071     0.672818     2.859839 C          1 UNL1 0.000
    19 C       1.087027     0.627306     1.661080 C          1 UNL1 0.000
    20 C       0.414410     0.526900     0.434193 C          1 UNL1 0.000
    21 C      -0.988801     0.473126     0.446942 C          1 UNL1 0.000
    22 O       1.065129     0.760004     4.036934 O          1 UNL1 0.000
    23 C       1.360531    -0.545914     4.537657 C          1 UNL1 0.000
    24 H      -6.798790     3.290488     2.656104 H          1 UNL1 0.000
    25 H      -5.656154     1.126172     2.673680 H          1 UNL1 0.000
    26 H      -2.149081     3.015983     0.987573 H          1 UNL1 0.000
    27 H      -3.275926     5.171767     1.095563 H          1 UNL1 0.000
    28 H      -5.686902    -0.036626     0.712389 H          1 UNL1 0.000
    29 H      -6.804522    -2.207506     0.777395 H          1 UNL1 0.000
    30 H      -5.586340    -4.235607     1.523278 H          1 UNL1 0.000
    31 H      -3.211660    -4.050713     2.219554 H          1 UNL1 0.000
    32 H      -2.104196    -1.884330     2.277096 H          1 UNL1 0.000
    33 H      -5.310603     6.106292    -0.112903 H          1 UNL1 0.000
    34 H      -6.716518     6.896627     0.616039 H          1 UNL1 0.000
    35 H      -6.856215     5.209336     0.092570 H          1 UNL1 0.000
    36 H      -1.557907     0.759759     3.802667 H          1 UNL1 0.000
    37 H       2.173820     0.659701     1.690600 H          1 UNL1 0.000
    38 H      -1.541500     0.398956    -0.487921 H          1 UNL1 0.000
    39 H       2.342972    -0.508335     5.017828 H          1 UNL1 0.000
    40 H       1.394982    -1.317744     3.758473 H          1 UNL1 0.000
    41 H       0.616339    -0.820711     5.291451 H          1 UNL1 0.000
    42 C       1.168284     0.493261    -0.824810 C          1 UNL1 0.000
    43 C       1.112652    -0.623776    -1.671949 C          1 UNL1 0.000
    44 C       1.855719    -0.662930    -2.856841 C          1 UNL1 0.000
    45 C       2.662145     0.420577    -3.216333 C          1 UNL1 0.000
    46 C       2.720017     1.543462    -2.387606 C          1 UNL1 0.000
    47 C       1.979933     1.576573    -1.201627 C          1 UNL1 0.000
    48 C       3.429927     0.378790    -4.427238 C          1 UNL1 0.000
    49 N       4.052732     0.344705    -5.404428 N          1 UNL1 0.000
    50 H       0.498524    -1.481823    -1.403194 H          1 UNL1 0.000
    51 H       1.802407    -1.546503    -3.490196 H          1 UNL1 0.000
    52 H       3.339901     2.397778    -2.653620 H          1 UNL1 0.000
    53 H       2.036227     2.461348    -0.568675 H          1 UNL1 0.000
@<TRIPOS>BOND
     1      1      2   2
     2      2      3   1
     3      3      4   2
     4      4      5   1
     5      5      6   2
     6      6      1   1
     7      4      7   1
     8      7      8   1
     9      8      9   2
    10      9     10   1
    11     10     11   2
    12     11     12   1
    13     12     13   2
    14     13      8   1
    15     14     15   1
    16      1     14   1
    17     16     17   2
    18     17     18   1
    19     18     19   2
    20     19     20   1
    21     20     21   2
    22     21     16   1
    23     22     23   1
    24     18     22   1
    25      7     16   1
    26      2     24   1
    27      3     25   1
    28      5     26   1
    29      6     27   1
    30      9     28   1
    31     10     29   1
    32     11     30   1
    33     12     31   1
    34     13     32   1
    35     15     33   1
    36     15     34   1
    37     15     35   1
    38     17     36   1
    39     19     37   1
    40     21     38   1
    41     23     39   1
    42     23     40   1
    43     23     41   1
    44     42     43   2
    45     43     44   1
    46     44     45   2
    47     45     46   1
    48     46     47   2
    49     47     42   1
    50     48     49   3
    51     45     48   1
    52     43     50   1
    53     44     51   1
    54     46     52   1
    55     47     53   1
    56     20     42   1
