# Produced with molli package
@<TRIPOS>MOLECULE
E_4_Q
50 53 0 0 0
SMALL
USER_CHARGES

@<TRIPOS>ATOM
     1 C      -5.088820     4.305260     1.580578 C          1 UNL1 0.000
     2 C      -5.672787     3.183362     0.997045 C          1 UNL1 0.000
     3 C      -5.039691     1.933209     1.082232 C          1 UNL1 0.000
     4 C      -3.821793     1.772639     1.765890 C          1 UNL1 0.000
     5 C      -3.248252     2.923374     2.336556 C          1 UNL1 0.000
     6 C      -3.880687     4.167769     2.257674 C          1 UNL1 0.000
     7 N      -3.163507     0.489519     1.859759 N          1 UNL1 0.000
     8 C      -3.875582    -0.762732     1.981486 C          1 UNL1 0.000
     9 C      -5.145037    -0.836566     2.583191 C          1 UNL1 0.000
    10 C      -5.830196    -2.052173     2.694167 C          1 UNL1 0.000
    11 C      -5.251904    -3.226720     2.223021 C          1 UNL1 0.000
    12 C      -3.986868    -3.187645     1.647125 C          1 UNL1 0.000
    13 C      -3.306748    -1.970737     1.531139 C          1 UNL1 0.000
    14 O      -5.613984     5.567096     1.584103 O          1 UNL1 0.000
    15 C      -6.472188     5.882280     0.494601 C          1 UNL1 0.000
    16 C      -1.726044     0.468054     1.841636 C          1 UNL1 0.000
    17 C      -1.003988     0.399244     3.040001 C          1 UNL1 0.000
    18 C       0.386658     0.432465     3.006326 C          1 UNL1 0.000
    19 C       1.068906     0.530985     1.794269 C          1 UNL1 0.000
    20 C       0.369235     0.556379     0.576805 C          1 UNL1 0.000
    21 C      -1.034981     0.538080     0.620426 C          1 UNL1 0.000
    22 O       1.129559     0.452040     4.155392 O          1 UNL1 0.000
    23 C       1.071286    -0.807980     4.822772 C          1 UNL1 0.000
    24 H      -6.624690     3.243034     0.480142 H          1 UNL1 0.000
    25 H      -5.507687     1.083315     0.590915 H          1 UNL1 0.000
    26 H      -2.306351     2.869332     2.874890 H          1 UNL1 0.000
    27 H      -3.419294     5.035285     2.722667 H          1 UNL1 0.000
    28 H      -5.613097     0.053561     2.995674 H          1 UNL1 0.000
    29 H      -6.813553    -2.078447     3.156470 H          1 UNL1 0.000
    30 H      -5.782370    -4.171153     2.310254 H          1 UNL1 0.000
    31 H      -3.524166    -4.101248     1.282737 H          1 UNL1 0.000
    32 H      -2.325782    -1.982786     1.062672 H          1 UNL1 0.000
    33 H      -5.992277     5.660772    -0.464803 H          1 UNL1 0.000
    34 H      -6.669621     6.958268     0.528657 H          1 UNL1 0.000
    35 H      -7.432479     5.365791     0.584829 H          1 UNL1 0.000
    36 H      -1.534061     0.363058     3.986675 H          1 UNL1 0.000
    37 H       2.156497     0.551610     1.807814 H          1 UNL1 0.000
    38 H      -1.603587     0.564904    -0.308454 H          1 UNL1 0.000
    39 H       1.792470    -0.781725     5.645243 H          1 UNL1 0.000
    40 H       1.355318    -1.625318     4.150251 H          1 UNL1 0.000
    41 H       0.079128    -0.987215     5.248911 H          1 UNL1 0.000
    42 C       1.078538     0.566678    -0.703955 C          1 UNL1 0.000
    43 N       0.743381    -0.418461    -1.579881 N          1 UNL1 0.000
    44 C       1.437807    -0.441816    -2.739995 C          1 UNL1 0.000
    45 C       2.423000     0.483126    -3.037716 C          1 UNL1 0.000
    46 N       2.760061     1.477884    -2.187184 N          1 UNL1 0.000
    47 C       2.068629     1.495029    -1.020360 C          1 UNL1 0.000
    48 H       1.181452    -1.238110    -3.430178 H          1 UNL1 0.000
    49 H       2.971051     0.447930    -3.971659 H          1 UNL1 0.000
    50 H       2.335859     2.293904    -0.335644 H          1 UNL1 0.000
@<TRIPOS>BOND
     1      1      2   2
     2      2      3   1
     3      3      4   2
     4      4      5   1
     5      5      6   2
     6      6      1   1
     7      4      7   1
     8      7      8   1
     9      8      9   2
    10      9     10   1
    11     10     11   2
    12     11     12   1
    13     12     13   2
    14     13      8   1
    15     14     15   1
    16      1     14   1
    17     16     17   2
    18     17     18   1
    19     18     19   2
    20     19     20   1
    21     20     21   2
    22     21     16   1
    23     22     23   1
    24     18     22   1
    25      7     16   1
    26      2     24   1
    27      3     25   1
    28      5     26   1
    29      6     27   1
    30      9     28   1
    31     10     29   1
    32     11     30   1
    33     12     31   1
    34     13     32   1
    35     15     33   1
    36     15     34   1
    37     15     35   1
    38     17     36   1
    39     19     37   1
    40     21     38   1
    41     23     39   1
    42     23     40   1
    43     23     41   1
    44     42     43   2
    45     43     44   1
    46     44     45   2
    47     45     46   1
    48     46     47   2
    49     47     42   1
    50     44     48   1
    51     45     49   1
    52     47     50   1
    53     20     42   1
