# Produced with molli package
@<TRIPOS>MOLECULE
E_4_T
55 58 0 0 0
SMALL
USER_CHARGES

@<TRIPOS>ATOM
     1 C      -5.269873     4.185931     1.683956 C          1 UNL1 0.000
     2 C      -5.887867     3.044949     1.180102 C          1 UNL1 0.000
     3 C      -5.197138     1.824974     1.163039 C          1 UNL1 0.000
     4 C      -3.894604     1.710565     1.681729 C          1 UNL1 0.000
     5 C      -3.292099     2.889722     2.166741 C          1 UNL1 0.000
     6 C      -3.976918     4.108756     2.183360 C          1 UNL1 0.000
     7 N      -3.189801     0.447001     1.703210 N          1 UNL1 0.000
     8 C      -3.845474    -0.837042     1.829740 C          1 UNL1 0.000
     9 C      -5.055328    -0.991806     2.528067 C          1 UNL1 0.000
    10 C      -5.674650    -2.242151     2.643358 C          1 UNL1 0.000
    11 C      -5.084781    -3.371045     2.081960 C          1 UNL1 0.000
    12 C      -3.873162    -3.252458     1.411100 C          1 UNL1 0.000
    13 C      -3.261146    -2.000998     1.289153 C          1 UNL1 0.000
    14 O      -5.905682     5.391478     1.789683 O          1 UNL1 0.000
    15 C      -6.375251     5.869884     0.531882 C          1 UNL1 0.000
    16 C      -1.753105     0.464433     1.729098 C          1 UNL1 0.000
    17 C      -1.072037     0.388136     2.948978 C          1 UNL1 0.000
    18 C       0.317337     0.409753     2.967180 C          1 UNL1 0.000
    19 C       1.046563     0.501441     1.780492 C          1 UNL1 0.000
    20 C       0.382531     0.553633     0.544031 C          1 UNL1 0.000
    21 C      -1.021994     0.555113     0.534339 C          1 UNL1 0.000
    22 O       0.932665     0.406150     4.187733 O          1 UNL1 0.000
    23 C       1.613497    -0.824849     4.423493 C          1 UNL1 0.000
    24 H      -6.910634     3.079829     0.819324 H          1 UNL1 0.000
    25 H      -5.697070     0.959650     0.734736 H          1 UNL1 0.000
    26 H      -2.283288     2.878700     2.569684 H          1 UNL1 0.000
    27 H      -3.495258     4.994284     2.589079 H          1 UNL1 0.000
    28 H      -5.523497    -0.141363     3.017038 H          1 UNL1 0.000
    29 H      -6.614295    -2.332322     3.181997 H          1 UNL1 0.000
    30 H      -5.563481    -4.342204     2.175247 H          1 UNL1 0.000
    31 H      -3.399061    -4.130379     0.979863 H          1 UNL1 0.000
    32 H      -2.319573    -1.948453     0.749674 H          1 UNL1 0.000
    33 H      -5.569609     5.886149    -0.210581 H          1 UNL1 0.000
    34 H      -6.720897     6.898124     0.676502 H          1 UNL1 0.000
    35 H      -7.223613     5.281065     0.170482 H          1 UNL1 0.000
    36 H      -1.627998     0.330673     3.880429 H          1 UNL1 0.000
    37 H       2.132604     0.529211     1.816448 H          1 UNL1 0.000
    38 H      -1.559452     0.610921    -0.410605 H          1 UNL1 0.000
    39 H       2.680126    -0.695707     4.218425 H          1 UNL1 0.000
    40 H       1.215898    -1.660113     3.834529 H          1 UNL1 0.000
    41 H       1.492895    -1.073580     5.482449 H          1 UNL1 0.000
    42 C       1.131790     0.579069    -0.716286 C          1 UNL1 0.000
    43 C       1.836007     1.720811    -1.120366 C          1 UNL1 0.000
    44 C       2.542001     1.736863    -2.328309 C          1 UNL1 0.000
    45 C       2.562181     0.608004    -3.154295 C          1 UNL1 0.000
    46 C       1.862144    -0.535476    -2.756639 C          1 UNL1 0.000
    47 C       1.153527    -0.547841    -1.552170 C          1 UNL1 0.000
    48 C       3.315181     0.609693    -4.451527 C          1 UNL1 0.000
    49 H       1.829462     2.613482    -0.498263 H          1 UNL1 0.000
    50 H       3.073251     2.640650    -2.617774 H          1 UNL1 0.000
    51 H       1.863490    -1.425087    -3.382543 H          1 UNL1 0.000
    52 H       0.618505    -1.450374    -1.263711 H          1 UNL1 0.000
    53 H       2.627753     0.441197    -5.286792 H          1 UNL1 0.000
    54 H       4.075633    -0.177968    -4.447103 H          1 UNL1 0.000
    55 H       3.822807     1.564851    -4.620835 H          1 UNL1 0.000
@<TRIPOS>BOND
     1      1      2   2
     2      2      3   1
     3      3      4   2
     4      4      5   1
     5      5      6   2
     6      6      1   1
     7      4      7   1
     8      7      8   1
     9      8      9   2
    10      9     10   1
    11     10     11   2
    12     11     12   1
    13     12     13   2
    14     13      8   1
    15     14     15   1
    16      1     14   1
    17     16     17   2
    18     17     18   1
    19     18     19   2
    20     19     20   1
    21     20     21   2
    22     21     16   1
    23     22     23   1
    24     18     22   1
    25      7     16   1
    26      2     24   1
    27      3     25   1
    28      5     26   1
    29      6     27   1
    30      9     28   1
    31     10     29   1
    32     11     30   1
    33     12     31   1
    34     13     32   1
    35     15     33   1
    36     15     34   1
    37     15     35   1
    38     17     36   1
    39     19     37   1
    40     21     38   1
    41     23     39   1
    42     23     40   1
    43     23     41   1
    44     42     43   2
    45     43     44   1
    46     44     45   2
    47     45     46   1
    48     46     47   2
    49     47     42   1
    50     45     48   1
    51     43     49   1
    52     44     50   1
    53     46     51   1
    54     47     52   1
    55     48     53   1
    56     48     54   1
    57     48     55   1
    58     20     42   1
