# Produced with molli package
@<TRIPOS>MOLECULE
E_5_O
53 57 0 0 0
SMALL
USER_CHARGES

@<TRIPOS>ATOM
     1 C      -7.425784     4.239520    -1.781307 C          1 UNL1 0.000
     2 C      -7.994309     3.113711    -1.196485 C          1 UNL1 0.000
     3 C      -7.313253     1.891399    -1.227573 C          1 UNL1 0.000
     4 C      -6.054294     1.772014    -1.844272 C          1 UNL1 0.000
     5 C      -5.474617     2.946421    -2.364315 C          1 UNL1 0.000
     6 C      -6.151318     4.170050    -2.332774 C          1 UNL1 0.000
     7 N      -5.367683     0.503528    -1.925889 N          1 UNL1 0.000
     8 C      -6.054482    -0.762650    -2.064620 C          1 UNL1 0.000
     9 C      -7.298960    -0.868040    -2.710709 C          1 UNL1 0.000
    10 C      -7.953874    -2.099092    -2.832074 C          1 UNL1 0.000
    11 C      -7.368013    -3.256508    -2.327994 C          1 UNL1 0.000
    12 C      -6.125188    -3.185538    -1.708312 C          1 UNL1 0.000
    13 C      -5.476289    -1.953436    -1.580701 C          1 UNL1 0.000
    14 O      -8.127664     5.412074    -1.726975 O          1 UNL1 0.000
    15 C      -8.444706     5.886843    -3.035974 C          1 UNL1 0.000
    16 C      -3.930451     0.498437    -1.954781 C          1 UNL1 0.000
    17 C      -3.252084     0.300012    -3.163392 C          1 UNL1 0.000
    18 C      -1.857785     0.274471    -3.191491 C          1 UNL1 0.000
    19 C      -1.118439     0.401391    -2.005740 C          1 UNL1 0.000
    20 C      -1.792784     0.587633    -0.777765 C          1 UNL1 0.000
    21 C      -3.195932     0.662492    -0.770216 C          1 UNL1 0.000
    22 C       0.280760     0.328467    -2.016687 C          1 UNL1 0.000
    23 C       1.005226     0.388894    -0.823734 C          1 UNL1 0.000
    24 C       0.353912     0.538866     0.408508 C          1 UNL1 0.000
    25 C      -1.045373     0.666092     0.411818 C          1 UNL1 0.000
    26 H      -8.969432     3.181238    -0.722878 H          1 UNL1 0.000
    27 H      -7.776101     1.030949    -0.750747 H          1 UNL1 0.000
    28 H      -4.488511     2.923885    -2.820853 H          1 UNL1 0.000
    29 H      -5.669541     5.056978    -2.732491 H          1 UNL1 0.000
    30 H      -7.769577     0.008076    -3.148973 H          1 UNL1 0.000
    31 H      -8.919700    -2.151196    -3.327802 H          1 UNL1 0.000
    32 H      -7.875296    -4.212754    -2.423812 H          1 UNL1 0.000
    33 H      -5.656059    -4.085659    -1.319705 H          1 UNL1 0.000
    34 H      -4.511532    -1.935970    -1.079873 H          1 UNL1 0.000
    35 H      -7.548780     6.203356    -3.579844 H          1 UNL1 0.000
    36 H      -9.094201     6.760589    -2.926887 H          1 UNL1 0.000
    37 H      -8.991740     5.128195    -3.607478 H          1 UNL1 0.000
    38 H      -3.814714     0.176816    -4.085337 H          1 UNL1 0.000
    39 H      -1.354266     0.133421    -4.144680 H          1 UNL1 0.000
    40 H      -3.732856     0.806427     0.164703 H          1 UNL1 0.000
    41 H       0.820197     0.207825    -2.953051 H          1 UNL1 0.000
    42 H       2.090687     0.320219    -0.861082 H          1 UNL1 0.000
    43 H      -1.555910     0.799672     1.364809 H          1 UNL1 0.000
    44 C       1.111747     0.530794     1.663761 C          1 UNL1 0.000
    45 N       1.062408     1.667415     2.399080 N          1 UNL1 0.000
    46 C       1.772030     1.692055     3.549147 C          1 UNL1 0.000
    47 C       2.522041     0.626528     4.018840 C          1 UNL1 0.000
    48 C       2.548952    -0.538883     3.264402 C          1 UNL1 0.000
    49 C       1.838443    -0.589311     2.068413 C          1 UNL1 0.000
    50 H       1.721078     2.625747     4.101918 H          1 UNL1 0.000
    51 H       3.070025     0.703178     4.951115 H          1 UNL1 0.000
    52 H       3.116802    -1.401199     3.601489 H          1 UNL1 0.000
    53 H       1.842586    -1.493115     1.467278 H          1 UNL1 0.000
@<TRIPOS>BOND
     1      1      2   2
     2      2      3   1
     3      3      4   2
     4      4      5   1
     5      5      6   2
     6      6      1   1
     7      4      7   1
     8      7      8   1
     9      8      9   2
    10      9     10   1
    11     10     11   2
    12     11     12   1
    13     12     13   2
    14     13      8   1
    15     14     15   1
    16      1     14   1
    17     16     17   2
    18     17     18   1
    19     18     19   2
    20     19     20   1
    21     20     21   2
    22     21     16   1
    23     19     22   1
    24     22     23   2
    25     23     24   1
    26     24     25   2
    27     25     20   1
    28      7     16   1
    29      2     26   1
    30      3     27   1
    31      5     28   1
    32      6     29   1
    33      9     30   1
    34     10     31   1
    35     11     32   1
    36     12     33   1
    37     13     34   1
    38     15     35   1
    39     15     36   1
    40     15     37   1
    41     17     38   1
    42     18     39   1
    43     21     40   1
    44     22     41   1
    45     23     42   1
    46     25     43   1
    47     44     45   2
    48     45     46   1
    49     46     47   2
    50     47     48   1
    51     48     49   2
    52     49     44   1
    53     46     50   1
    54     47     51   1
    55     48     52   1
    56     49     53   1
    57     24     44   1
