# Produced with molli package
@<TRIPOS>MOLECULE
E_5_Q
52 56 0 0 0
SMALL
USER_CHARGES

@<TRIPOS>ATOM
     1 C      -7.438641     4.415097    -1.892811 C          1 UNL1 0.000
     2 C      -8.062904     3.276762    -1.397946 C          1 UNL1 0.000
     3 C      -7.388335     2.050129    -1.416798 C          1 UNL1 0.000
     4 C      -6.087023     1.936612    -1.941186 C          1 UNL1 0.000
     5 C      -5.461878     3.125343    -2.374162 C          1 UNL1 0.000
     6 C      -6.127786     4.355051    -2.347641 C          1 UNL1 0.000
     7 N      -5.400539     0.665253    -2.013166 N          1 UNL1 0.000
     8 C      -6.074581    -0.607253    -2.173420 C          1 UNL1 0.000
     9 C      -7.305737    -0.726112    -2.841015 C          1 UNL1 0.000
    10 C      -7.940341    -1.966426    -2.983391 C          1 UNL1 0.000
    11 C      -7.344118    -3.121117    -2.485002 C          1 UNL1 0.000
    12 C      -6.111837    -3.038259    -1.847610 C          1 UNL1 0.000
    13 C      -5.486719    -1.796934    -1.694456 C          1 UNL1 0.000
    14 O      -8.106863     5.607370    -1.857080 O          1 UNL1 0.000
    15 C      -8.621520     5.918344    -3.152914 C          1 UNL1 0.000
    16 C      -3.962062     0.658383    -2.017707 C          1 UNL1 0.000
    17 C      -3.266215     0.473271    -3.219134 C          1 UNL1 0.000
    18 C      -1.873169     0.422821    -3.223214 C          1 UNL1 0.000
    19 C      -1.152848     0.512857    -2.023513 C          1 UNL1 0.000
    20 C      -1.844761     0.692754    -0.802714 C          1 UNL1 0.000
    21 C      -3.245774     0.791851    -0.818352 C          1 UNL1 0.000
    22 C       0.243045     0.408230    -2.011256 C          1 UNL1 0.000
    23 C       0.949018     0.433134    -0.806343 C          1 UNL1 0.000
    24 C       0.281583     0.579383     0.419080 C          1 UNL1 0.000
    25 C      -1.114899     0.737327     0.399175 C          1 UNL1 0.000
    26 H      -9.070769     3.339036    -0.998462 H          1 UNL1 0.000
    27 H      -7.893408     1.182401    -1.000403 H          1 UNL1 0.000
    28 H      -4.444196     3.112023    -2.755705 H          1 UNL1 0.000
    29 H      -5.619195     5.254338    -2.681905 H          1 UNL1 0.000
    30 H      -7.782473     0.144692    -3.282526 H          1 UNL1 0.000
    31 H      -8.898209    -2.028474    -3.493299 H          1 UNL1 0.000
    32 H      -7.834034    -4.084265    -2.600225 H          1 UNL1 0.000
    33 H      -5.631568    -3.935485    -1.465829 H          1 UNL1 0.000
    34 H      -4.529078    -1.773587    -1.180427 H          1 UNL1 0.000
    35 H      -7.814819     6.072081    -3.878063 H          1 UNL1 0.000
    36 H      -9.186800     6.851888    -3.074492 H          1 UNL1 0.000
    37 H      -9.305361     5.136866    -3.503397 H          1 UNL1 0.000
    38 H      -3.815480     0.373476    -4.151834 H          1 UNL1 0.000
    39 H      -1.355940     0.287798    -4.170562 H          1 UNL1 0.000
    40 H      -3.797707     0.925723     0.109967 H          1 UNL1 0.000
    41 H       0.795257     0.289872    -2.941364 H          1 UNL1 0.000
    42 H       2.033415     0.342914    -0.833676 H          1 UNL1 0.000
    43 H      -1.641561     0.867579     1.344844 H          1 UNL1 0.000
    44 C       1.018120     0.543764     1.685437 C          1 UNL1 0.000
    45 N       0.873595     1.613620     2.508220 N          1 UNL1 0.000
    46 C       1.585422     1.573430     3.659302 C          1 UNL1 0.000
    47 C       2.400128     0.505975     3.997506 C          1 UNL1 0.000
    48 N       2.542472    -0.574807     3.200678 N          1 UNL1 0.000
    49 C       1.835724    -0.528935     2.043795 C          1 UNL1 0.000
    50 H       1.485211     2.435551     4.308711 H          1 UNL1 0.000
    51 H       2.963254     0.492310     4.923587 H          1 UNL1 0.000
    52 H       1.939108    -1.399771     1.404415 H          1 UNL1 0.000
@<TRIPOS>BOND
     1      1      2   2
     2      2      3   1
     3      3      4   2
     4      4      5   1
     5      5      6   2
     6      6      1   1
     7      4      7   1
     8      7      8   1
     9      8      9   2
    10      9     10   1
    11     10     11   2
    12     11     12   1
    13     12     13   2
    14     13      8   1
    15     14     15   1
    16      1     14   1
    17     16     17   2
    18     17     18   1
    19     18     19   2
    20     19     20   1
    21     20     21   2
    22     21     16   1
    23     19     22   1
    24     22     23   2
    25     23     24   1
    26     24     25   2
    27     25     20   1
    28      7     16   1
    29      2     26   1
    30      3     27   1
    31      5     28   1
    32      6     29   1
    33      9     30   1
    34     10     31   1
    35     11     32   1
    36     12     33   1
    37     13     34   1
    38     15     35   1
    39     15     36   1
    40     15     37   1
    41     17     38   1
    42     18     39   1
    43     21     40   1
    44     22     41   1
    45     23     42   1
    46     25     43   1
    47     44     45   2
    48     45     46   1
    49     46     47   2
    50     47     48   1
    51     48     49   2
    52     49     44   1
    53     46     50   1
    54     47     51   1
    55     49     52   1
    56     24     44   1
