# Produced with molli package
@<TRIPOS>MOLECULE
E_5_M
55 59 0 0 0
SMALL
USER_CHARGES

@<TRIPOS>ATOM
     1 C      -7.249384     4.368087    -2.241857 C          1 UNL1 0.000
     2 C      -7.872675     3.246624    -2.779396 C          1 UNL1 0.000
     3 C      -7.223059     2.000534    -2.761629 C          1 UNL1 0.000
     4 C      -5.964886     1.828862    -2.157963 C          1 UNL1 0.000
     5 C      -5.346612     2.992279    -1.654871 C          1 UNL1 0.000
     6 C      -5.982354     4.238742    -1.686562 C          1 UNL1 0.000
     7 N      -5.301901     0.540614    -2.067193 N          1 UNL1 0.000
     8 C      -5.981745    -0.743260    -2.074129 C          1 UNL1 0.000
     9 C      -7.325873    -0.893521    -1.690111 C          1 UNL1 0.000
    10 C      -7.982080    -2.129809    -1.772568 C          1 UNL1 0.000
    11 C      -7.292845    -3.264154    -2.186504 C          1 UNL1 0.000
    12 C      -5.944204    -3.165847    -2.501179 C          1 UNL1 0.000
    13 C      -5.300846    -1.924076    -2.444923 C          1 UNL1 0.000
    14 O      -7.811865     5.610299    -2.154549 O          1 UNL1 0.000
    15 C      -8.569722     6.004300    -3.292762 C          1 UNL1 0.000
    16 C      -3.860720     0.538687    -2.041643 C          1 UNL1 0.000
    17 C      -3.142242     0.621541    -3.240605 C          1 UNL1 0.000
    18 C      -1.748522     0.585332    -3.226973 C          1 UNL1 0.000
    19 C      -1.047057     0.504483    -2.014577 C          1 UNL1 0.000
    20 C      -1.759135     0.454581    -0.793692 C          1 UNL1 0.000
    21 C      -3.165313     0.448521    -0.824022 C          1 UNL1 0.000
    22 C       0.353218     0.480784    -1.994847 C          1 UNL1 0.000
    23 C       1.048360     0.437879    -0.784769 C          1 UNL1 0.000
    24 C       0.363696     0.422098     0.436959 C          1 UNL1 0.000
    25 C      -1.041009     0.421153     0.418056 C          1 UNL1 0.000
    26 H      -8.872851     3.302115    -3.196261 H          1 UNL1 0.000
    27 H      -7.729009     1.165790    -3.238641 H          1 UNL1 0.000
    28 H      -4.358326     2.951572    -1.205623 H          1 UNL1 0.000
    29 H      -5.480889     5.109704    -1.272755 H          1 UNL1 0.000
    30 H      -7.893285    -0.051661    -1.304410 H          1 UNL1 0.000
    31 H      -9.033199    -2.202963    -1.505173 H          1 UNL1 0.000
    32 H      -7.799887    -4.223169    -2.249012 H          1 UNL1 0.000
    33 H      -5.385646    -4.049959    -2.797710 H          1 UNL1 0.000
    34 H      -4.247612    -1.903011    -2.711653 H          1 UNL1 0.000
    35 H      -7.967663     5.936513    -4.205080 H          1 UNL1 0.000
    36 H      -8.853325     7.052366    -3.153995 H          1 UNL1 0.000
    37 H      -9.492611     5.424825    -3.386496 H          1 UNL1 0.000
    38 H      -3.674557     0.689177    -4.185988 H          1 UNL1 0.000
    39 H      -1.213911     0.627629    -4.173127 H          1 UNL1 0.000
    40 H      -3.735336     0.394762     0.101081 H          1 UNL1 0.000
    41 H       0.918785     0.505905    -2.923661 H          1 UNL1 0.000
    42 H       2.136637     0.435706    -0.800712 H          1 UNL1 0.000
    43 H      -1.582991     0.399935     1.362579 H          1 UNL1 0.000
    44 C       1.112182     0.426277     1.698307 C          1 UNL1 0.000
    45 C       1.201870     1.593084     2.473591 C          1 UNL1 0.000
    46 C       1.959273     1.616362     3.649661 C          1 UNL1 0.000
    47 C       2.635231     0.467890     4.070548 C          1 UNL1 0.000
    48 C       2.546094    -0.703139     3.312855 C          1 UNL1 0.000
    49 C       1.791217    -0.721397     2.135181 C          1 UNL1 0.000
    50 C       3.423207     0.492897     5.269207 C          1 UNL1 0.000
    51 N       4.063008     0.513408     6.235729 N          1 UNL1 0.000
    52 H       0.694286     2.500960     2.150972 H          1 UNL1 0.000
    53 H       2.022782     2.538090     4.225269 H          1 UNL1 0.000
    54 H       3.066309    -1.606205     3.626902 H          1 UNL1 0.000
    55 H       1.737517    -1.639560     1.552339 H          1 UNL1 0.000
@<TRIPOS>BOND
     1      1      2   2
     2      2      3   1
     3      3      4   2
     4      4      5   1
     5      5      6   2
     6      6      1   1
     7      4      7   1
     8      7      8   1
     9      8      9   2
    10      9     10   1
    11     10     11   2
    12     11     12   1
    13     12     13   2
    14     13      8   1
    15     14     15   1
    16      1     14   1
    17     16     17   2
    18     17     18   1
    19     18     19   2
    20     19     20   1
    21     20     21   2
    22     21     16   1
    23     19     22   1
    24     22     23   2
    25     23     24   1
    26     24     25   2
    27     25     20   1
    28      7     16   1
    29      2     26   1
    30      3     27   1
    31      5     28   1
    32      6     29   1
    33      9     30   1
    34     10     31   1
    35     11     32   1
    36     12     33   1
    37     13     34   1
    38     15     35   1
    39     15     36   1
    40     15     37   1
    41     17     38   1
    42     18     39   1
    43     21     40   1
    44     22     41   1
    45     23     42   1
    46     25     43   1
    47     44     45   2
    48     45     46   1
    49     46     47   2
    50     47     48   1
    51     48     49   2
    52     49     44   1
    53     50     51   3
    54     47     50   1
    55     45     52   1
    56     46     53   1
    57     48     54   1
    58     49     55   1
    59     24     44   1
