# Produced with molli package
@<TRIPOS>MOLECULE
E_5_R
55 59 0 0 0
SMALL
USER_CHARGES

@<TRIPOS>ATOM
     1 C      -7.330808     4.294469    -2.245718 C          1 UNL1 0.000
     2 C      -7.945676     3.146942    -2.739053 C          1 UNL1 0.000
     3 C      -7.284685     1.911366    -2.672087 C          1 UNL1 0.000
     4 C      -6.012721     1.789672    -2.084630 C          1 UNL1 0.000
     5 C      -5.413007     2.970299    -1.603424 C          1 UNL1 0.000
     6 C      -6.069304     4.203268    -1.669525 C          1 UNL1 0.000
     7 N      -5.328187     0.518730    -1.992956 N          1 UNL1 0.000
     8 C      -6.008286    -0.752867    -1.886164 C          1 UNL1 0.000
     9 C      -7.249372    -0.880156    -1.238211 C          1 UNL1 0.000
    10 C      -7.902847    -2.115355    -1.153481 C          1 UNL1 0.000
    11 C      -7.318016    -3.256069    -1.695660 C          1 UNL1 0.000
    12 C      -6.076263    -3.164949    -2.314333 C          1 UNL1 0.000
    13 C      -5.428823    -1.928684    -2.404453 C          1 UNL1 0.000
    14 O      -7.914556     5.530451    -2.226005 O          1 UNL1 0.000
    15 C      -8.536701     5.891580    -3.455273 C          1 UNL1 0.000
    16 C      -3.890668     0.520143    -1.987273 C          1 UNL1 0.000
    17 C      -3.181617     0.672156    -3.184353 C          1 UNL1 0.000
    18 C      -1.786633     0.662657    -3.179366 C          1 UNL1 0.000
    19 C      -1.076956     0.541534    -1.974561 C          1 UNL1 0.000
    20 C      -1.784106     0.423410    -0.756183 C          1 UNL1 0.000
    21 C      -3.187227     0.387244    -0.779894 C          1 UNL1 0.000
    22 C       0.323838     0.551099    -1.954862 C          1 UNL1 0.000
    23 C       1.019925     0.471434    -0.746041 C          1 UNL1 0.000
    24 C       0.335580     0.387533     0.474731 C          1 UNL1 0.000
    25 C      -1.068050     0.360727     0.452814 C          1 UNL1 0.000
    26 H      -8.945436     3.182009    -3.159228 H          1 UNL1 0.000
    27 H      -7.781350     1.041999    -3.095585 H          1 UNL1 0.000
    28 H      -4.427804     2.949107    -1.145028 H          1 UNL1 0.000
    29 H      -5.587597     5.092834    -1.272532 H          1 UNL1 0.000
    30 H      -7.717913    -0.018093    -0.770340 H          1 UNL1 0.000
    31 H      -8.866751    -2.184277    -0.655948 H          1 UNL1 0.000
    32 H      -7.824394    -4.215317    -1.628799 H          1 UNL1 0.000
    33 H      -5.606812    -4.052348    -2.730946 H          1 UNL1 0.000
    34 H      -4.464626    -1.896875    -2.905022 H          1 UNL1 0.000
    35 H      -7.850137     5.762085    -4.299214 H          1 UNL1 0.000
    36 H      -8.798150     6.952621    -3.394866 H          1 UNL1 0.000
    37 H      -9.462588     5.331390    -3.615005 H          1 UNL1 0.000
    38 H      -3.720486     0.780167    -4.122135 H          1 UNL1 0.000
    39 H      -1.257907     0.764327    -4.124277 H          1 UNL1 0.000
    40 H      -3.750409     0.287063     0.145570 H          1 UNL1 0.000
    41 H       0.887545     0.637574    -2.881141 H          1 UNL1 0.000
    42 H       2.107432     0.507135    -0.761608 H          1 UNL1 0.000
    43 H      -1.607909     0.305992     1.397505 H          1 UNL1 0.000
    44 C       1.070366     0.351883     1.740922 C          1 UNL1 0.000
    45 N       0.953142     1.457232     2.521343 N          1 UNL1 0.000
    46 C       1.667283     1.495256     3.674200 C          1 UNL1 0.000
    47 C       2.489543     0.460002     4.086151 C          1 UNL1 0.000
    48 C       2.589636    -0.683455     3.292844 C          1 UNL1 0.000
    49 C       1.868923    -0.734649     2.099426 C          1 UNL1 0.000
    50 N       3.242985     0.581550     5.323694 N          1 UNL1 0.000
    51 O       4.143401    -0.243921     5.529321 O          1 UNL1 0.000
    52 O       2.941047     1.503044     6.094445 O          1 UNL1 0.000
    53 H       1.550355     2.412897     4.245759 H          1 UNL1 0.000
    54 H       3.215849    -1.524131     3.581180 H          1 UNL1 0.000
    55 H       1.930409    -1.609342     1.458125 H          1 UNL1 0.000
@<TRIPOS>BOND
     1      1      2   2
     2      2      3   1
     3      3      4   2
     4      4      5   1
     5      5      6   2
     6      6      1   1
     7      4      7   1
     8      7      8   1
     9      8      9   2
    10      9     10   1
    11     10     11   2
    12     11     12   1
    13     12     13   2
    14     13      8   1
    15     14     15   1
    16      1     14   1
    17     16     17   2
    18     17     18   1
    19     18     19   2
    20     19     20   1
    21     20     21   2
    22     21     16   1
    23     19     22   1
    24     22     23   2
    25     23     24   1
    26     24     25   2
    27     25     20   1
    28      7     16   1
    29      2     26   1
    30      3     27   1
    31      5     28   1
    32      6     29   1
    33      9     30   1
    34     10     31   1
    35     11     32   1
    36     12     33   1
    37     13     34   1
    38     15     35   1
    39     15     36   1
    40     15     37   1
    41     17     38   1
    42     18     39   1
    43     21     40   1
    44     22     41   1
    45     23     42   1
    46     25     43   1
    47     44     45   2
    48     45     46   1
    49     46     47   2
    50     47     48   1
    51     48     49   2
    52     49     44   1
    53     50     51   2
    54     50     52   1
    55     47     50   1
    56     46     53   1
    57     48     54   1
    58     49     55   1
    59     24     44   1
