# Produced with molli package
@<TRIPOS>MOLECULE
E_5_L
58 63 0 0 0
SMALL
USER_CHARGES

@<TRIPOS>ATOM
     1 C      -7.270747     4.338490    -2.281930 C          1 UNL1 0.000
     2 C      -7.889130     3.212379    -2.817704 C          1 UNL1 0.000
     3 C      -7.254591     1.961423    -2.753686 C          1 UNL1 0.000
     4 C      -6.010321     1.797847    -2.120025 C          1 UNL1 0.000
     5 C      -5.403193     2.960041    -1.602397 C          1 UNL1 0.000
     6 C      -6.029213     4.208968    -1.671177 C          1 UNL1 0.000
     7 N      -5.350537     0.511572    -2.021384 N          1 UNL1 0.000
     8 C      -6.044034    -0.760264    -1.996021 C          1 UNL1 0.000
     9 C      -7.355480    -0.889478    -1.505296 C          1 UNL1 0.000
    10 C      -8.027449    -2.118694    -1.525416 C          1 UNL1 0.000
    11 C      -7.389055    -3.259027    -2.002200 C          1 UNL1 0.000
    12 C      -6.075084    -3.173816    -2.445623 C          1 UNL1 0.000
    13 C      -5.412520    -1.941518    -2.439182 C          1 UNL1 0.000
    14 O      -7.823890     5.587964    -2.250250 O          1 UNL1 0.000
    15 C      -8.482915     5.970283    -3.452814 C          1 UNL1 0.000
    16 C      -3.911500     0.502352    -2.000468 C          1 UNL1 0.000
    17 C      -3.192507     0.617605    -3.196138 C          1 UNL1 0.000
    18 C      -1.797905     0.609552    -3.180436 C          1 UNL1 0.000
    19 C      -1.098023     0.527848    -1.966776 C          1 UNL1 0.000
    20 C      -1.814022     0.438853    -0.751201 C          1 UNL1 0.000
    21 C      -3.218079     0.399819    -0.784094 C          1 UNL1 0.000
    22 C       0.302984     0.545658    -1.938563 C          1 UNL1 0.000
    23 C       0.991023     0.507248    -0.723701 C          1 UNL1 0.000
    24 C       0.297873     0.451834     0.491503 C          1 UNL1 0.000
    25 C      -1.105062     0.407046     0.463721 C          1 UNL1 0.000
    26 H      -8.873141     3.271946    -3.270703 H          1 UNL1 0.000
    27 H      -7.753072     1.115373    -3.219406 H          1 UNL1 0.000
    28 H      -4.433054     2.913764    -1.115197 H          1 UNL1 0.000
    29 H      -5.538699     5.081501    -1.247878 H          1 UNL1 0.000
    30 H      -7.875072    -0.034110    -1.082009 H          1 UNL1 0.000
    31 H      -9.049314    -2.182634    -1.160490 H          1 UNL1 0.000
    32 H      -7.908867    -4.213196    -2.017048 H          1 UNL1 0.000
    33 H      -5.559286    -4.061966    -2.801596 H          1 UNL1 0.000
    34 H      -4.389054    -1.923256    -2.804214 H          1 UNL1 0.000
    35 H      -7.817994     5.862267    -4.316587 H          1 UNL1 0.000
    36 H      -8.747602     7.028493    -3.362712 H          1 UNL1 0.000
    37 H      -9.411173     5.410744    -3.599738 H          1 UNL1 0.000
    38 H      -3.724239     0.696863    -4.140881 H          1 UNL1 0.000
    39 H      -1.261909     0.681493    -4.123654 H          1 UNL1 0.000
    40 H      -3.787932     0.322459     0.139163 H          1 UNL1 0.000
    41 H       0.873378     0.601781    -2.862620 H          1 UNL1 0.000
    42 H       2.079001     0.537174    -0.728336 H          1 UNL1 0.000
    43 H      -1.649771     0.355654     1.405272 H          1 UNL1 0.000
    44 C       1.029515     0.455560     1.762112 C          1 UNL1 0.000
    45 C       1.126300     1.629593     2.523295 C          1 UNL1 0.000
    46 C       1.842635     1.674114     3.725807 C          1 UNL1 0.000
    47 C       2.463182     0.495279     4.150094 C          1 UNL1 0.000
    48 C       2.388871    -0.695436     3.428739 C          1 UNL1 0.000
    49 C       1.663842    -0.713316     2.220666 C          1 UNL1 0.000
    50 N       3.225048     0.243593     5.269071 N          1 UNL1 0.000
    51 C       3.630709    -1.064776     5.281075 C          1 UNL1 0.000
    52 C       3.126851    -1.671563     4.153355 C          1 UNL1 0.000
    53 H       0.643719     2.540095     2.170359 H          1 UNL1 0.000
    54 H       1.912766     2.593583     4.297447 H          1 UNL1 0.000
    55 H       1.598395    -1.633078     1.645501 H          1 UNL1 0.000
    56 H       3.448987     0.930299     5.975764 H          1 UNL1 0.000
    57 H       4.240395    -1.449480     6.087352 H          1 UNL1 0.000
    58 H       3.272348    -2.706914     3.874844 H          1 UNL1 0.000
@<TRIPOS>BOND
     1      1      2   2
     2      2      3   1
     3      3      4   2
     4      4      5   1
     5      5      6   2
     6      6      1   1
     7      4      7   1
     8      7      8   1
     9      8      9   2
    10      9     10   1
    11     10     11   2
    12     11     12   1
    13     12     13   2
    14     13      8   1
    15     14     15   1
    16      1     14   1
    17     16     17   2
    18     17     18   1
    19     18     19   2
    20     19     20   1
    21     20     21   2
    22     21     16   1
    23     19     22   1
    24     22     23   2
    25     23     24   1
    26     24     25   2
    27     25     20   1
    28      7     16   1
    29      2     26   1
    30      3     27   1
    31      5     28   1
    32      6     29   1
    33      9     30   1
    34     10     31   1
    35     11     32   1
    36     12     33   1
    37     13     34   1
    38     15     35   1
    39     15     36   1
    40     15     37   1
    41     17     38   1
    42     18     39   1
    43     21     40   1
    44     22     41   1
    45     23     42   1
    46     25     43   1
    47     44     45   2
    48     45     46   1
    49     46     47   2
    50     47     48   1
    51     48     49   2
    52     49     44   1
    53     47     50   1
    54     50     51   1
    55     51     52   2
    56     52     48   1
    57     45     53   1
    58     46     54   1
    59     49     55   1
    60     50     56   1
    61     51     57   1
    62     52     58   1
    63     24     44   1
