# Produced with molli package
@<TRIPOS>MOLECULE
E_5_S
59 63 0 0 0
SMALL
USER_CHARGES

@<TRIPOS>ATOM
     1 C      -7.483697     4.314318    -2.215674 C          1 UNL1 0.000
     2 C      -8.073838     3.165880    -2.732987 C          1 UNL1 0.000
     3 C      -7.379727     1.947285    -2.707295 C          1 UNL1 0.000
     4 C      -6.110548     1.834957    -2.111787 C          1 UNL1 0.000
     5 C      -5.531129     3.025643    -1.622345 C          1 UNL1 0.000
     6 C      -6.211989     4.248057    -1.663312 C          1 UNL1 0.000
     7 N      -5.405047     0.571989    -2.010084 N          1 UNL1 0.000
     8 C      -6.047830    -0.728482    -1.959577 C          1 UNL1 0.000
     9 C      -7.364244    -0.905549    -1.499141 C          1 UNL1 0.000
    10 C      -7.980772    -2.164415    -1.503964 C          1 UNL1 0.000
    11 C      -7.278523    -3.288768    -1.925029 C          1 UNL1 0.000
    12 C      -5.956736    -3.157206    -2.330100 C          1 UNL1 0.000
    13 C      -5.352660    -1.895249    -2.346786 C          1 UNL1 0.000
    14 O      -8.152389     5.503123    -2.128323 O          1 UNL1 0.000
    15 C      -8.477777     6.038532    -3.408743 C          1 UNL1 0.000
    16 C      -3.965729     0.609775    -1.988647 C          1 UNL1 0.000
    17 C      -3.251466     0.740384    -3.185512 C          1 UNL1 0.000
    18 C      -1.856885     0.728130    -3.174412 C          1 UNL1 0.000
    19 C      -1.151896     0.623281    -1.965371 C          1 UNL1 0.000
    20 C      -1.862680     0.527816    -0.746811 C          1 UNL1 0.000
    21 C      -3.267294     0.499296    -0.775205 C          1 UNL1 0.000
    22 C       0.249066     0.619912    -1.943969 C          1 UNL1 0.000
    23 C       0.943811     0.554876    -0.733942 C          1 UNL1 0.000
    24 C       0.257332     0.496129     0.485123 C          1 UNL1 0.000
    25 C      -1.146635     0.472325     0.463823 C          1 UNL1 0.000
    26 H      -9.081699     3.195791    -3.135562 H          1 UNL1 0.000
    27 H      -7.857857     1.084056    -3.161828 H          1 UNL1 0.000
    28 H      -4.543180     3.019552    -1.169493 H          1 UNL1 0.000
    29 H      -5.749041     5.140123    -1.250869 H          1 UNL1 0.000
    30 H      -7.935699    -0.067245    -1.110920 H          1 UNL1 0.000
    31 H      -9.010405    -2.263428    -1.169728 H          1 UNL1 0.000
    32 H      -7.754800    -4.265466    -1.925513 H          1 UNL1 0.000
    33 H      -5.389264    -4.031257    -2.639142 H          1 UNL1 0.000
    34 H      -4.320335    -1.844350    -2.682865 H          1 UNL1 0.000
    35 H      -7.567363     6.329870    -3.942949 H          1 UNL1 0.000
    36 H      -9.079832     6.938402    -3.248102 H          1 UNL1 0.000
    37 H      -9.071898     5.346734    -4.013636 H          1 UNL1 0.000
    38 H      -3.786690     0.822981    -4.128006 H          1 UNL1 0.000
    39 H      -1.324425     0.806350    -4.119468 H          1 UNL1 0.000
    40 H      -3.834657     0.408721     0.148696 H          1 UNL1 0.000
    41 H       0.814898     0.679760    -2.871007 H          1 UNL1 0.000
    42 H       2.031897     0.571765    -0.746949 H          1 UNL1 0.000
    43 H      -1.689090     0.419792     1.406907 H          1 UNL1 0.000
    44 C       0.996783     0.487599     1.750803 C          1 UNL1 0.000
    45 C       1.096787     1.651658     2.524497 C          1 UNL1 0.000
    46 C       1.827479     1.657185     3.716756 C          1 UNL1 0.000
    47 C       2.470441     0.495844     4.165598 C          1 UNL1 0.000
    48 C       2.382875    -0.668067     3.394786 C          1 UNL1 0.000
    49 C       1.648526    -0.669643     2.200570 C          1 UNL1 0.000
    50 C       3.234560     0.569961     5.447444 C          1 UNL1 0.000
    51 C       3.734007    -0.686590     6.112138 C          1 UNL1 0.000
    52 O       3.462709     1.670535     5.952189 O          1 UNL1 0.000
    53 H       0.615891     2.570920     2.194186 H          1 UNL1 0.000
    54 H       1.895160     2.579545     4.291864 H          1 UNL1 0.000
    55 H       2.883831    -1.586505     3.683186 H          1 UNL1 0.000
    56 H       1.589863    -1.585371     1.614120 H          1 UNL1 0.000
    57 H       4.802807    -0.800092     5.913760 H          1 UNL1 0.000
    58 H       3.200211    -1.580904     5.789535 H          1 UNL1 0.000
    59 H       3.570922    -0.596437     7.190958 H          1 UNL1 0.000
@<TRIPOS>BOND
     1      1      2   2
     2      2      3   1
     3      3      4   2
     4      4      5   1
     5      5      6   2
     6      6      1   1
     7      4      7   1
     8      7      8   1
     9      8      9   2
    10      9     10   1
    11     10     11   2
    12     11     12   1
    13     12     13   2
    14     13      8   1
    15     14     15   1
    16      1     14   1
    17     16     17   2
    18     17     18   1
    19     18     19   2
    20     19     20   1
    21     20     21   2
    22     21     16   1
    23     19     22   1
    24     22     23   2
    25     23     24   1
    26     24     25   2
    27     25     20   1
    28      7     16   1
    29      2     26   1
    30      3     27   1
    31      5     28   1
    32      6     29   1
    33      9     30   1
    34     10     31   1
    35     11     32   1
    36     12     33   1
    37     13     34   1
    38     15     35   1
    39     15     36   1
    40     15     37   1
    41     17     38   1
    42     18     39   1
    43     21     40   1
    44     22     41   1
    45     23     42   1
    46     25     43   1
    47     44     45   2
    48     45     46   1
    49     46     47   2
    50     47     48   1
    51     48     49   2
    52     49     44   1
    53     47     50   1
    54     50     51   1
    55     50     52   2
    56     45     53   1
    57     46     54   1
    58     48     55   1
    59     49     56   1
    60     51     57   1
    61     51     58   1
    62     51     59   1
    63     24     44   1
