# Produced with molli package
@<TRIPOS>MOLECULE
E_5_K
56 60 0 0 0
SMALL
USER_CHARGES

@<TRIPOS>ATOM
     1 C      -7.355687     4.349826    -2.268604 C          1 UNL1 0.000
     2 C      -7.957067     3.215577    -2.807615 C          1 UNL1 0.000
     3 C      -7.300031     1.976519    -2.753148 C          1 UNL1 0.000
     4 C      -6.045517     1.836674    -2.134038 C          1 UNL1 0.000
     5 C      -5.457876     3.003767    -1.607364 C          1 UNL1 0.000
     6 C      -6.109880     4.239589    -1.661490 C          1 UNL1 0.000
     7 N      -5.361648     0.563741    -2.056848 N          1 UNL1 0.000
     8 C      -6.040451    -0.711961    -1.995237 C          1 UNL1 0.000
     9 C      -7.309560    -0.852564    -1.406562 C          1 UNL1 0.000
    10 C      -7.964926    -2.089434    -1.373282 C          1 UNL1 0.000
    11 C      -7.353403    -3.220790    -1.904874 C          1 UNL1 0.000
    12 C      -6.083186    -3.118721    -2.460396 C          1 UNL1 0.000
    13 C      -5.434812    -1.880128    -2.501384 C          1 UNL1 0.000
    14 O      -7.926431     5.591397    -2.233783 O          1 UNL1 0.000
    15 C      -8.617111     5.955879    -3.424151 C          1 UNL1 0.000
    16 C      -3.923672     0.571892    -2.052735 C          1 UNL1 0.000
    17 C      -3.218466     0.763139    -3.246690 C          1 UNL1 0.000
    18 C      -1.823799     0.782869    -3.242772 C          1 UNL1 0.000
    19 C      -1.110996     0.654482    -2.040963 C          1 UNL1 0.000
    20 C      -1.814174     0.484043    -0.826006 C          1 UNL1 0.000
    21 C      -3.216631     0.416853    -0.850073 C          1 UNL1 0.000
    22 C       0.288904     0.709529    -2.021131 C          1 UNL1 0.000
    23 C       0.987440     0.634759    -0.814221 C          1 UNL1 0.000
    24 C       0.305040     0.498423     0.400744 C          1 UNL1 0.000
    25 C      -1.095181     0.408326     0.380502 C          1 UNL1 0.000
    26 H      -8.943629     3.260244    -3.256843 H          1 UNL1 0.000
    27 H      -7.785530     1.119871    -3.213912 H          1 UNL1 0.000
    28 H      -4.485187     2.969077    -1.124185 H          1 UNL1 0.000
    29 H      -5.636303     5.118300    -1.231688 H          1 UNL1 0.000
    30 H      -7.802350     0.000040    -0.946537 H          1 UNL1 0.000
    31 H      -8.951849    -2.166837    -0.924452 H          1 UNL1 0.000
    32 H      -7.861123    -4.181289    -1.878342 H          1 UNL1 0.000
    33 H      -5.592034    -3.999223    -2.866591 H          1 UNL1 0.000
    34 H      -4.447601    -1.841815    -2.954494 H          1 UNL1 0.000
    35 H      -7.981213     5.822498    -4.306185 H          1 UNL1 0.000
    36 H      -8.867908     7.018590    -3.349024 H          1 UNL1 0.000
    37 H      -9.554655     5.402166    -3.528678 H          1 UNL1 0.000
    38 H      -3.760292     0.883343    -4.181353 H          1 UNL1 0.000
    39 H      -1.298368     0.917619    -4.185407 H          1 UNL1 0.000
    40 H      -3.777234     0.281986     0.072517 H          1 UNL1 0.000
    41 H       0.849579     0.828000    -2.945695 H          1 UNL1 0.000
    42 H       2.073812     0.698322    -0.826217 H          1 UNL1 0.000
    43 H      -1.633047     0.299822     1.321340 H          1 UNL1 0.000
    44 C       1.044657     0.479869     1.664561 C          1 UNL1 0.000
    45 C       1.347234     1.684915     2.325011 C          1 UNL1 0.000
    46 C       2.085353     1.685657     3.510158 C          1 UNL1 0.000
    47 C       2.511530     0.465948     4.040151 C          1 UNL1 0.000
    48 C       2.214033    -0.747775     3.413224 C          1 UNL1 0.000
    49 C       1.483694    -0.732855     2.222234 C          1 UNL1 0.000
    50 N       3.289905     0.457116     5.269479 N          1 UNL1 0.000
    51 O       2.994656    -0.384996     6.123837 O          1 UNL1 0.000
    52 O       4.198014     1.297831     5.369756 O          1 UNL1 0.000
    53 H       1.010456     2.632474     1.906160 H          1 UNL1 0.000
    54 H       2.317677     2.626741     4.003761 H          1 UNL1 0.000
    55 H       2.551381    -1.693727     3.830026 H          1 UNL1 0.000
    56 H       1.261219    -1.673236     1.719999 H          1 UNL1 0.000
@<TRIPOS>BOND
     1      1      2   2
     2      2      3   1
     3      3      4   2
     4      4      5   1
     5      5      6   2
     6      6      1   1
     7      4      7   1
     8      7      8   1
     9      8      9   2
    10      9     10   1
    11     10     11   2
    12     11     12   1
    13     12     13   2
    14     13      8   1
    15     14     15   1
    16      1     14   1
    17     16     17   2
    18     17     18   1
    19     18     19   2
    20     19     20   1
    21     20     21   2
    22     21     16   1
    23     19     22   1
    24     22     23   2
    25     23     24   1
    26     24     25   2
    27     25     20   1
    28      7     16   1
    29      2     26   1
    30      3     27   1
    31      5     28   1
    32      6     29   1
    33      9     30   1
    34     10     31   1
    35     11     32   1
    36     12     33   1
    37     13     34   1
    38     15     35   1
    39     15     36   1
    40     15     37   1
    41     17     38   1
    42     18     39   1
    43     21     40   1
    44     22     41   1
    45     23     42   1
    46     25     43   1
    47     44     45   2
    48     45     46   1
    49     46     47   2
    50     47     48   1
    51     48     49   2
    52     49     44   1
    53     50     51   2
    54     50     52   1
    55     47     50   1
    56     45     53   1
    57     46     54   1
    58     48     55   1
    59     49     56   1
    60     24     44   1
