# Produced with molli package
@<TRIPOS>MOLECULE
E_5_T
57 61 0 0 0
SMALL
USER_CHARGES

@<TRIPOS>ATOM
     1 C      -7.399906     4.373505    -1.893371 C          1 UNL1 0.000
     2 C      -8.040401     3.268171    -1.346411 C          1 UNL1 0.000
     3 C      -7.399012     2.022756    -1.336410 C          1 UNL1 0.000
     4 C      -6.114826     1.855515    -1.885473 C          1 UNL1 0.000
     5 C      -5.468564     3.014568    -2.367665 C          1 UNL1 0.000
     6 C      -6.099698     4.262477    -2.368248 C          1 UNL1 0.000
     7 N      -5.456864     0.566547    -1.930215 N          1 UNL1 0.000
     8 C      -6.151363    -0.701925    -2.030409 C          1 UNL1 0.000
     9 C      -7.426084    -0.820979    -2.610499 C          1 UNL1 0.000
    10 C      -8.081671    -2.056881    -2.687351 C          1 UNL1 0.000
    11 C      -7.462908    -3.210627    -2.216001 C          1 UNL1 0.000
    12 C      -6.187241    -3.131060    -1.671553 C          1 UNL1 0.000
    13 C      -5.542784    -1.893197    -1.579614 C          1 UNL1 0.000
    14 O      -8.050666     5.576013    -1.883382 O          1 UNL1 0.000
    15 C      -8.407353     5.963480    -3.211399 C          1 UNL1 0.000
    16 C      -4.018379     0.541913    -1.943982 C          1 UNL1 0.000
    17 C      -3.330052     0.354260    -3.149456 C          1 UNL1 0.000
    18 C      -1.936428     0.325231    -3.163152 C          1 UNL1 0.000
    19 C      -1.207725     0.441897    -1.970556 C          1 UNL1 0.000
    20 C      -1.894068     0.611060    -0.744292 C          1 UNL1 0.000
    21 C      -3.295516     0.684269    -0.749907 C          1 UNL1 0.000
    22 C       0.190334     0.377527    -1.967991 C          1 UNL1 0.000
    23 C       0.904404     0.441064    -0.769625 C          1 UNL1 0.000
    24 C       0.242686     0.578451     0.458890 C          1 UNL1 0.000
    25 C      -1.157823     0.679605     0.451936 C          1 UNL1 0.000
    26 H      -9.038599     3.370316    -0.930709 H          1 UNL1 0.000
    27 H      -7.917548     1.185475    -0.876956 H          1 UNL1 0.000
    28 H      -4.458632     2.964498    -2.766225 H          1 UNL1 0.000
    29 H      -5.568056     5.134822    -2.736100 H          1 UNL1 0.000
    30 H      -7.926344     0.044784    -3.034933 H          1 UNL1 0.000
    31 H      -9.074461    -2.115970    -3.125900 H          1 UNL1 0.000
    32 H      -7.968664    -4.170198    -2.281364 H          1 UNL1 0.000
    33 H      -5.687135    -4.027678    -1.314522 H          1 UNL1 0.000
    34 H      -4.550044    -1.876908    -1.136694 H          1 UNL1 0.000
    35 H      -7.522613     6.169027    -3.823453 H          1 UNL1 0.000
    36 H      -8.991517     6.886311    -3.146199 H          1 UNL1 0.000
    37 H      -9.032488     5.200000    -3.688520 H          1 UNL1 0.000
    38 H      -3.885175     0.244448    -4.077411 H          1 UNL1 0.000
    39 H      -1.423330     0.193121    -4.113418 H          1 UNL1 0.000
    40 H      -3.843281     0.816900     0.181219 H          1 UNL1 0.000
    41 H       0.739683     0.263015    -2.900206 H          1 UNL1 0.000
    42 H       1.990541     0.379832    -0.798446 H          1 UNL1 0.000
    43 H      -1.685136     0.782028     1.400083 H          1 UNL1 0.000
    44 C       1.002028     0.592433     1.716228 C          1 UNL1 0.000
    45 C       0.975616     1.704085     2.570140 C          1 UNL1 0.000
    46 C       1.722154     1.719307     3.753391 C          1 UNL1 0.000
    47 C       2.509079     0.619688     4.110434 C          1 UNL1 0.000
    48 C       2.529298    -0.499508     3.272629 C          1 UNL1 0.000
    49 C       1.785670    -0.510823     2.089532 C          1 UNL1 0.000
    50 C       3.322341     0.624575     5.370413 C          1 UNL1 0.000
    51 H       0.382305     2.578007     2.308963 H          1 UNL1 0.000
    52 H       1.687246     2.601398     4.388608 H          1 UNL1 0.000
    53 H       3.126522    -1.370269     3.533667 H          1 UNL1 0.000
    54 H       1.816226    -1.395943     1.456939 H          1 UNL1 0.000
    55 H       4.379502     0.460872     5.136675 H          1 UNL1 0.000
    56 H       2.976789    -0.164546     6.045730 H          1 UNL1 0.000
    57 H       3.241437     1.580779     5.897451 H          1 UNL1 0.000
@<TRIPOS>BOND
     1      1      2   2
     2      2      3   1
     3      3      4   2
     4      4      5   1
     5      5      6   2
     6      6      1   1
     7      4      7   1
     8      7      8   1
     9      8      9   2
    10      9     10   1
    11     10     11   2
    12     11     12   1
    13     12     13   2
    14     13      8   1
    15     14     15   1
    16      1     14   1
    17     16     17   2
    18     17     18   1
    19     18     19   2
    20     19     20   1
    21     20     21   2
    22     21     16   1
    23     19     22   1
    24     22     23   2
    25     23     24   1
    26     24     25   2
    27     25     20   1
    28      7     16   1
    29      2     26   1
    30      3     27   1
    31      5     28   1
    32      6     29   1
    33      9     30   1
    34     10     31   1
    35     11     32   1
    36     12     33   1
    37     13     34   1
    38     15     35   1
    39     15     36   1
    40     15     37   1
    41     17     38   1
    42     18     39   1
    43     21     40   1
    44     22     41   1
    45     23     42   1
    46     25     43   1
    47     44     45   2
    48     45     46   1
    49     46     47   2
    50     47     48   1
    51     48     49   2
    52     49     44   1
    53     47     50   1
    54     45     51   1
    55     46     52   1
    56     48     53   1
    57     49     54   1
    58     50     55   1
    59     50     56   1
    60     50     57   1
    61     24     44   1
