# Produced with molli package
@<TRIPOS>MOLECULE
E_5_P
58 62 0 0 0
SMALL
USER_CHARGES

@<TRIPOS>ATOM
     1 C      -7.351931     4.312029    -2.226472 C          1 UNL1 0.000
     2 C      -7.907581     3.185564    -2.827727 C          1 UNL1 0.000
     3 C      -7.242546     1.953062    -2.758598 C          1 UNL1 0.000
     4 C      -6.024153     1.815320    -2.069996 C          1 UNL1 0.000
     5 C      -5.482093     2.971864    -1.478781 C          1 UNL1 0.000
     6 C      -6.146439     4.200580    -1.541757 C          1 UNL1 0.000
     7 N      -5.337252     0.547024    -1.985264 N          1 UNL1 0.000
     8 C      -6.023983    -0.723167    -1.922886 C          1 UNL1 0.000
     9 C      -7.291100    -0.848878    -1.325617 C          1 UNL1 0.000
    10 C      -7.957380    -2.078863    -1.283462 C          1 UNL1 0.000
    11 C      -7.361856    -3.215773    -1.821406 C          1 UNL1 0.000
    12 C      -6.096602    -3.126094    -2.391388 C          1 UNL1 0.000
    13 C      -5.434342    -1.895110    -2.436300 C          1 UNL1 0.000
    14 O      -7.941359     5.545474    -2.204732 O          1 UNL1 0.000
    15 C      -8.508743     5.939779    -3.450094 C          1 UNL1 0.000
    16 C      -3.900490     0.553750    -1.980551 C          1 UNL1 0.000
    17 C      -3.193926     0.716460    -3.177779 C          1 UNL1 0.000
    18 C      -1.798773     0.711227    -3.176523 C          1 UNL1 0.000
    19 C      -1.086166     0.589937    -1.973610 C          1 UNL1 0.000
    20 C      -1.790372     0.461018    -0.754997 C          1 UNL1 0.000
    21 C      -3.193778     0.413102    -0.776256 C          1 UNL1 0.000
    22 C       0.314758     0.611748    -1.956507 C          1 UNL1 0.000
    23 C       1.012802     0.551292    -0.748079 C          1 UNL1 0.000
    24 C       0.330537     0.470103     0.472634 C          1 UNL1 0.000
    25 C      -1.071743     0.406509     0.453037 C          1 UNL1 0.000
    26 H      -8.864422     3.232925    -3.336925 H          1 UNL1 0.000
    27 H      -7.688190     1.098032    -3.261305 H          1 UNL1 0.000
    28 H      -4.541917     2.930356    -0.935649 H          1 UNL1 0.000
    29 H      -5.714445     5.072927    -1.058651 H          1 UNL1 0.000
    30 H      -7.770884     0.011321    -0.865478 H          1 UNL1 0.000
    31 H      -8.939612    -2.146334    -0.823098 H          1 UNL1 0.000
    32 H      -7.878445    -4.171291    -1.788959 H          1 UNL1 0.000
    33 H      -5.619863    -4.011090    -2.804817 H          1 UNL1 0.000
    34 H      -4.451205    -1.864982    -2.898556 H          1 UNL1 0.000
    35 H      -7.789143     5.823357    -4.268056 H          1 UNL1 0.000
    36 H      -8.763957     7.001485    -3.376554 H          1 UNL1 0.000
    37 H      -9.431820     5.391375    -3.659602 H          1 UNL1 0.000
    38 H      -3.734750     0.828210    -4.114001 H          1 UNL1 0.000
    39 H      -1.272337     0.819506    -4.121818 H          1 UNL1 0.000
    40 H      -3.753909     0.300608     0.149438 H          1 UNL1 0.000
    41 H       0.877088     0.696957    -2.883420 H          1 UNL1 0.000
    42 H       2.099986     0.599091    -0.762395 H          1 UNL1 0.000
    43 H      -1.610439     0.332067     1.396674 H          1 UNL1 0.000
    44 C       1.071243     0.498636     1.738122 C          1 UNL1 0.000
    45 C       1.877769    -0.579840     2.131300 C          1 UNL1 0.000
    46 C       2.624859    -0.522572     3.312626 C          1 UNL1 0.000
    47 C       2.582614     0.622940     4.105814 C          1 UNL1 0.000
    48 C       1.754808     1.684887     3.752090 C          1 UNL1 0.000
    49 C       1.010738     1.626988     2.571492 C          1 UNL1 0.000
    50 O       3.284397     0.754832     5.272758 O          1 UNL1 0.000
    51 C       4.670171     0.454116     5.118734 C          1 UNL1 0.000
    52 H       1.923304    -1.477009     1.517277 H          1 UNL1 0.000
    53 H       3.219566    -1.382241     3.604002 H          1 UNL1 0.000
    54 H       1.704681     2.567743     4.383333 H          1 UNL1 0.000
    55 H       0.394023     2.479265     2.293030 H          1 UNL1 0.000
    56 H       5.193037     0.828967     6.003898 H          1 UNL1 0.000
    57 H       5.094921     0.955509     4.241244 H          1 UNL1 0.000
    58 H       4.835597    -0.626200     5.065433 H          1 UNL1 0.000
@<TRIPOS>BOND
     1      1      2   2
     2      2      3   1
     3      3      4   2
     4      4      5   1
     5      5      6   2
     6      6      1   1
     7      4      7   1
     8      7      8   1
     9      8      9   2
    10      9     10   1
    11     10     11   2
    12     11     12   1
    13     12     13   2
    14     13      8   1
    15     14     15   1
    16      1     14   1
    17     16     17   2
    18     17     18   1
    19     18     19   2
    20     19     20   1
    21     20     21   2
    22     21     16   1
    23     19     22   1
    24     22     23   2
    25     23     24   1
    26     24     25   2
    27     25     20   1
    28      7     16   1
    29      2     26   1
    30      3     27   1
    31      5     28   1
    32      6     29   1
    33      9     30   1
    34     10     31   1
    35     11     32   1
    36     12     33   1
    37     13     34   1
    38     15     35   1
    39     15     36   1
    40     15     37   1
    41     17     38   1
    42     18     39   1
    43     21     40   1
    44     22     41   1
    45     23     42   1
    46     25     43   1
    47     44     45   2
    48     45     46   1
    49     46     47   2
    50     47     48   1
    51     48     49   2
    52     49     44   1
    53     50     51   1
    54     47     50   1
    55     45     52   1
    56     46     53   1
    57     48     54   1
    58     49     55   1
    59     51     56   1
    60     51     57   1
    61     51     58   1
    62     24     44   1
