# Produced with molli package
@<TRIPOS>MOLECULE
E_5_N
51 55 0 0 0
SMALL
USER_CHARGES

@<TRIPOS>ATOM
     1 C      -7.448230     4.311509    -1.925967 C          1 UNL1 0.000
     2 C      -8.013119     3.197941    -1.313937 C          1 UNL1 0.000
     3 C      -7.343258     1.969016    -1.341202 C          1 UNL1 0.000
     4 C      -6.097977     1.830864    -1.980345 C          1 UNL1 0.000
     5 C      -5.520583     2.992842    -2.530347 C          1 UNL1 0.000
     6 C      -6.186384     4.222602    -2.503121 C          1 UNL1 0.000
     7 N      -5.417631     0.558146    -2.052232 N          1 UNL1 0.000
     8 C      -6.108384    -0.708239    -2.164756 C          1 UNL1 0.000
     9 C      -7.368963    -0.816750    -2.778287 C          1 UNL1 0.000
    10 C      -8.028731    -2.047572    -2.874134 C          1 UNL1 0.000
    11 C      -7.432012    -3.202529    -2.377517 C          1 UNL1 0.000
    12 C      -6.173771    -3.129301    -1.790572 C          1 UNL1 0.000
    13 C      -5.520291    -1.897279    -1.687846 C          1 UNL1 0.000
    14 O      -8.142447     5.488573    -1.869953 O          1 UNL1 0.000
    15 C      -8.436280     5.987235    -3.175359 C          1 UNL1 0.000
    16 C      -3.980504     0.551385    -2.062659 C          1 UNL1 0.000
    17 C      -3.283687     0.351962    -3.260712 C          1 UNL1 0.000
    18 C      -1.888356     0.346539    -3.270225 C          1 UNL1 0.000
    19 C      -1.164772     0.496305    -2.077412 C          1 UNL1 0.000
    20 C      -1.861741     0.668280    -0.857362 C          1 UNL1 0.000
    21 C      -3.264271     0.722677    -0.868761 C          1 UNL1 0.000
    22 C       0.238007     0.462485    -2.069447 C          1 UNL1 0.000
    23 C       0.946865     0.557666    -0.870147 C          1 UNL1 0.000
    24 C       0.260253     0.686380     0.338555 C          1 UNL1 0.000
    25 C      -1.137169     0.759585     0.342188 C          1 UNL1 0.000
    26 H      -8.977931     3.280348    -0.821619 H          1 UNL1 0.000
    27 H      -7.803234     1.119596    -0.842347 H          1 UNL1 0.000
    28 H      -4.544604     2.955057    -3.007045 H          1 UNL1 0.000
    29 H      -5.703956     5.098655    -2.925191 H          1 UNL1 0.000
    30 H      -7.850165     0.056363    -3.210949 H          1 UNL1 0.000
    31 H      -9.007077    -2.101475    -3.344499 H          1 UNL1 0.000
    32 H      -7.942769    -4.158665    -2.454015 H          1 UNL1 0.000
    33 H      -5.695773    -4.027578    -1.408428 H          1 UNL1 0.000
    34 H      -4.542955    -1.880275    -1.212171 H          1 UNL1 0.000
    35 H      -7.532144     6.323858    -3.692685 H          1 UNL1 0.000
    36 H      -9.096165     6.852664    -3.062164 H          1 UNL1 0.000
    37 H      -8.963967     5.236026    -3.774204 H          1 UNL1 0.000
    38 H      -3.832814     0.216513    -4.189078 H          1 UNL1 0.000
    39 H      -1.370745     0.207214    -4.216648 H          1 UNL1 0.000
    40 H      -3.817084     0.862963     0.057849 H          1 UNL1 0.000
    41 H       0.791606     0.344463    -2.998477 H          1 UNL1 0.000
    42 H       2.033169     0.508697    -0.884462 H          1 UNL1 0.000
    43 H      -1.664313     0.870907     1.288120 H          1 UNL1 0.000
    44 C       0.996480     0.719571     1.588124 C          1 UNL1 0.000
    45 C       1.101558    -0.406182     2.381040 C          1 UNL1 0.000
    46 S       2.032411    -0.122204     3.789297 S          1 UNL1 0.000
    47 C       2.303180     1.508131     3.346708 C          1 UNL1 0.000
    48 C       1.699447     1.827951     2.149921 C          1 UNL1 0.000
    49 H       0.682544    -1.387824     2.203043 H          1 UNL1 0.000
    50 H       2.892817     2.151918     3.984567 H          1 UNL1 0.000
    51 H       1.755712     2.812011     1.700670 H          1 UNL1 0.000
@<TRIPOS>BOND
     1      1      2   2
     2      2      3   1
     3      3      4   2
     4      4      5   1
     5      5      6   2
     6      6      1   1
     7      4      7   1
     8      7      8   1
     9      8      9   2
    10      9     10   1
    11     10     11   2
    12     11     12   1
    13     12     13   2
    14     13      8   1
    15     14     15   1
    16      1     14   1
    17     16     17   2
    18     17     18   1
    19     18     19   2
    20     19     20   1
    21     20     21   2
    22     21     16   1
    23     19     22   1
    24     22     23   2
    25     23     24   1
    26     24     25   2
    27     25     20   1
    28      7     16   1
    29      2     26   1
    30      3     27   1
    31      5     28   1
    32      6     29   1
    33      9     30   1
    34     10     31   1
    35     11     32   1
    36     12     33   1
    37     13     34   1
    38     15     35   1
    39     15     36   1
    40     15     37   1
    41     17     38   1
    42     18     39   1
    43     21     40   1
    44     22     41   1
    45     23     42   1
    46     25     43   1
    47     44     45   2
    48     45     46   1
    49     46     47   1
    50     47     48   2
    51     48     44   1
    52     45     49   1
    53     47     50   1
    54     48     51   1
    55     24     44   1
