# Produced with molli package
@<TRIPOS>MOLECULE
E_6_T
57 61 0 0 0
SMALL
USER_CHARGES

@<TRIPOS>ATOM
     1 C      -5.916624     4.336362     0.628098 C          1 UNL1 0.000
     2 C      -6.596487     3.196708     1.037746 C          1 UNL1 0.000
     3 C      -5.950516     1.953364     1.019383 C          1 UNL1 0.000
     4 C      -4.622847     1.819376     0.572320 C          1 UNL1 0.000
     5 C      -3.947300     3.009742     0.222322 C          1 UNL1 0.000
     6 C      -4.581940     4.256346     0.255621 C          1 UNL1 0.000
     7 N      -3.945450     0.536397     0.524368 N          1 UNL1 0.000
     8 C      -4.616232    -0.744749     0.414239 C          1 UNL1 0.000
     9 C      -5.861173    -0.891875    -0.220675 C          1 UNL1 0.000
    10 C      -6.510783    -2.132118    -0.278302 C          1 UNL1 0.000
    11 C      -5.911042    -3.265032     0.262778 C          1 UNL1 0.000
    12 C      -4.656310    -3.161876     0.849148 C          1 UNL1 0.000
    13 C      -4.018712    -1.919312     0.920137 C          1 UNL1 0.000
    14 O      -6.559468     5.541729     0.680209 O          1 UNL1 0.000
    15 C      -6.900753     5.978446    -0.636124 C          1 UNL1 0.000
    16 C      -2.497254     0.530371     0.590532 C          1 UNL1 0.000
    17 C      -1.784373     0.446606    -0.615838 C          1 UNL1 0.000
    18 C      -0.395751     0.459465    -0.610065 C          1 UNL1 0.000
    19 C       0.318130     0.528125     0.598228 C          1 UNL1 0.000
    20 C      -0.387405     0.577091     1.838055 C          1 UNL1 0.000
    21 C      -1.807082     0.593794     1.834605 C          1 UNL1 0.000
    22 C       0.274375     0.594855     3.090713 C          1 UNL1 0.000
    23 C      -0.423901     0.624816     4.298579 C          1 UNL1 0.000
    24 C      -1.807871     0.649368     4.290511 C          1 UNL1 0.000
    25 C      -2.488597     0.639159     3.074532 C          1 UNL1 0.000
    26 H      -7.625462     3.271167     1.377150 H          1 UNL1 0.000
    27 H      -6.503055     1.093869     1.387995 H          1 UNL1 0.000
    28 H      -2.904992     2.991405    -0.084482 H          1 UNL1 0.000
    29 H      -4.025979     5.153076    -0.001175 H          1 UNL1 0.000
    30 H      -6.344006    -0.043698    -0.697792 H          1 UNL1 0.000
    31 H      -7.485318    -2.210778    -0.753110 H          1 UNL1 0.000
    32 H      -6.414050    -4.227163     0.218398 H          1 UNL1 0.000
    33 H      -4.168239    -4.042258     1.259301 H          1 UNL1 0.000
    34 H      -3.044016    -1.887960     1.400000 H          1 UNL1 0.000
    35 H      -6.008615     6.161107    -1.244940 H          1 UNL1 0.000
    36 H      -7.444964     6.923360    -0.545449 H          1 UNL1 0.000
    37 H      -7.558509     5.254582    -1.130438 H          1 UNL1 0.000
    38 H      -2.322300     0.391721    -1.559145 H          1 UNL1 0.000
    39 H       0.139021     0.416847    -1.557327 H          1 UNL1 0.000
    40 H       1.361517     0.571790     3.139634 H          1 UNL1 0.000
    41 H       0.118832     0.625818     5.239885 H          1 UNL1 0.000
    42 H      -2.363580     0.670082     5.223912 H          1 UNL1 0.000
    43 H      -3.576615     0.649016     3.100689 H          1 UNL1 0.000
    44 C       1.788360     0.543313     0.531922 C          1 UNL1 0.000
    45 C       2.494169     1.754382     0.579655 C          1 UNL1 0.000
    46 C       3.891141     1.769442     0.547246 C          1 UNL1 0.000
    47 C       4.609726     0.572874     0.457479 C          1 UNL1 0.000
    48 C       3.910371    -0.638187     0.402141 C          1 UNL1 0.000
    49 C       2.513615    -0.652258     0.435404 C          1 UNL1 0.000
    50 C       6.109514     0.572649     0.453232 C          1 UNL1 0.000
    51 H       1.953425     2.695782     0.655326 H          1 UNL1 0.000
    52 H       4.411081     2.723334     0.597911 H          1 UNL1 0.000
    53 H       4.449753    -1.580611     0.339102 H          1 UNL1 0.000
    54 H       1.989290    -1.604983     0.399458 H          1 UNL1 0.000
    55 H       6.487073    -0.006971    -0.395274 H          1 UNL1 0.000
    56 H       6.486345     0.136245     1.383771 H          1 UNL1 0.000
    57 H       6.510452     1.587825     0.366258 H          1 UNL1 0.000
@<TRIPOS>BOND
     1      1      2   2
     2      2      3   1
     3      3      4   2
     4      4      5   1
     5      5      6   2
     6      6      1   1
     7      4      7   1
     8      7      8   1
     9      8      9   2
    10      9     10   1
    11     10     11   2
    12     11     12   1
    13     12     13   2
    14     13      8   1
    15     14     15   1
    16      1     14   1
    17     16     17   2
    18     17     18   1
    19     18     19   2
    20     19     20   1
    21     20     21   2
    22     21     16   1
    23     20     22   1
    24     22     23   2
    25     23     24   1
    26     24     25   2
    27     25     21   1
    28      7     16   1
    29      2     26   1
    30      3     27   1
    31      5     28   1
    32      6     29   1
    33      9     30   1
    34     10     31   1
    35     11     32   1
    36     12     33   1
    37     13     34   1
    38     15     35   1
    39     15     36   1
    40     15     37   1
    41     17     38   1
    42     18     39   1
    43     22     40   1
    44     23     41   1
    45     24     42   1
    46     25     43   1
    47     44     45   2
    48     45     46   1
    49     46     47   2
    50     47     48   1
    51     48     49   2
    52     49     44   1
    53     47     50   1
    54     45     51   1
    55     46     52   1
    56     48     53   1
    57     49     54   1
    58     50     55   1
    59     50     56   1
    60     50     57   1
    61     19     44   1
