# Produced with molli package
@<TRIPOS>MOLECULE
E_6_O
53 57 0 0 0
SMALL
USER_CHARGES

@<TRIPOS>ATOM
     1 C      -5.969028     4.356645     0.713752 C          1 UNL1 0.000
     2 C      -6.578870     3.211817     1.211303 C          1 UNL1 0.000
     3 C      -5.911253     1.983896     1.142640 C          1 UNL1 0.000
     4 C      -4.629227     1.876766     0.570228 C          1 UNL1 0.000
     5 C      -4.016439     3.069075     0.132420 C          1 UNL1 0.000
     6 C      -4.677605     4.299727     0.204737 C          1 UNL1 0.000
     7 N      -3.942399     0.605078     0.476935 N          1 UNL1 0.000
     8 C      -4.621835    -0.662696     0.309738 C          1 UNL1 0.000
     9 C      -5.868504    -0.761519    -0.333091 C          1 UNL1 0.000
    10 C      -6.526787    -1.990150    -0.463346 C          1 UNL1 0.000
    11 C      -5.938503    -3.154483     0.020627 C          1 UNL1 0.000
    12 C      -4.688576    -3.092893     0.625632 C          1 UNL1 0.000
    13 C      -4.038619    -1.862614     0.765247 C          1 UNL1 0.000
    14 O      -6.629609     5.550339     0.804504 O          1 UNL1 0.000
    15 C      -7.177928     5.904613    -0.465837 C          1 UNL1 0.000
    16 C      -2.495019     0.601369     0.528605 C          1 UNL1 0.000
    17 C      -1.793655     0.505995    -0.683152 C          1 UNL1 0.000
    18 C      -0.404797     0.514585    -0.690334 C          1 UNL1 0.000
    19 C       0.322554     0.591315     0.510213 C          1 UNL1 0.000
    20 C      -0.370266     0.668811     1.754534 C          1 UNL1 0.000
    21 C      -1.791586     0.678103     1.764596 C          1 UNL1 0.000
    22 C       0.304390     0.728307     2.998917 C          1 UNL1 0.000
    23 C      -0.381481     0.774643     4.213246 C          1 UNL1 0.000
    24 C      -1.765928     0.774998     4.219497 C          1 UNL1 0.000
    25 C      -2.459322     0.732841     3.011206 C          1 UNL1 0.000
    26 H      -7.568391     3.270966     1.654511 H          1 UNL1 0.000
    27 H      -6.400929     1.110732     1.565905 H          1 UNL1 0.000
    28 H      -3.011744     3.059665    -0.282003 H          1 UNL1 0.000
    29 H      -4.177755     5.203351    -0.131238 H          1 UNL1 0.000
    30 H      -6.342627     0.118940    -0.758539 H          1 UNL1 0.000
    31 H      -7.498134    -2.034351    -0.948947 H          1 UNL1 0.000
    32 H      -6.448784    -4.108542    -0.080117 H          1 UNL1 0.000
    33 H      -4.215090    -3.998230     0.996424 H          1 UNL1 0.000
    34 H      -3.069610    -1.857772     1.257651 H          1 UNL1 0.000
    35 H      -6.391339     6.073840    -1.209263 H          1 UNL1 0.000
    36 H      -7.732465     6.839790    -0.342909 H          1 UNL1 0.000
    37 H      -7.878524     5.139430    -0.819120 H          1 UNL1 0.000
    38 H      -2.339717     0.446344    -1.621374 H          1 UNL1 0.000
    39 H       0.122044     0.466374    -1.641727 H          1 UNL1 0.000
    40 H       1.392368     0.742948     3.035483 H          1 UNL1 0.000
    41 H       0.170454     0.813767     5.148300 H          1 UNL1 0.000
    42 H      -2.311938     0.810821     5.158115 H          1 UNL1 0.000
    43 H      -3.546914     0.732291     3.049883 H          1 UNL1 0.000
    44 C       1.788987     0.568316     0.428717 C          1 UNL1 0.000
    45 N       2.394003     1.776902     0.328520 N          1 UNL1 0.000
    46 C       3.742630     1.790047     0.257820 C          1 UNL1 0.000
    47 C       4.527183     0.649179     0.277095 C          1 UNL1 0.000
    48 C       3.892082    -0.583000     0.373171 C          1 UNL1 0.000
    49 C       2.502779    -0.628524     0.449107 C          1 UNL1 0.000
    50 H       4.190702     2.776836     0.183576 H          1 UNL1 0.000
    51 H       5.607403     0.720140     0.218086 H          1 UNL1 0.000
    52 H       4.472187    -1.501073     0.390189 H          1 UNL1 0.000
    53 H       1.985455    -1.579291     0.527859 H          1 UNL1 0.000
@<TRIPOS>BOND
     1      1      2   2
     2      2      3   1
     3      3      4   2
     4      4      5   1
     5      5      6   2
     6      6      1   1
     7      4      7   1
     8      7      8   1
     9      8      9   2
    10      9     10   1
    11     10     11   2
    12     11     12   1
    13     12     13   2
    14     13      8   1
    15     14     15   1
    16      1     14   1
    17     16     17   2
    18     17     18   1
    19     18     19   2
    20     19     20   1
    21     20     21   2
    22     21     16   1
    23     20     22   1
    24     22     23   2
    25     23     24   1
    26     24     25   2
    27     25     21   1
    28      7     16   1
    29      2     26   1
    30      3     27   1
    31      5     28   1
    32      6     29   1
    33      9     30   1
    34     10     31   1
    35     11     32   1
    36     12     33   1
    37     13     34   1
    38     15     35   1
    39     15     36   1
    40     15     37   1
    41     17     38   1
    42     18     39   1
    43     22     40   1
    44     23     41   1
    45     24     42   1
    46     25     43   1
    47     44     45   2
    48     45     46   1
    49     46     47   2
    50     47     48   1
    51     48     49   2
    52     49     44   1
    53     46     50   1
    54     47     51   1
    55     48     52   1
    56     49     53   1
    57     19     44   1
