# Produced with molli package
@<TRIPOS>MOLECULE
E_6_Q
52 56 0 0 0
SMALL
USER_CHARGES

@<TRIPOS>ATOM
     1 C      -5.869503     4.350044     0.577810 C          1 UNL1 0.000
     2 C      -6.527989     3.243374     1.098781 C          1 UNL1 0.000
     3 C      -5.891177     1.995271     1.116917 C          1 UNL1 0.000
     4 C      -4.593732     1.823863     0.599856 C          1 UNL1 0.000
     5 C      -3.932759     2.984596     0.141657 C          1 UNL1 0.000
     6 C      -4.559196     4.235719     0.133595 C          1 UNL1 0.000
     7 N      -3.931056     0.533160     0.585220 N          1 UNL1 0.000
     8 C      -4.616998    -0.743415     0.506868 C          1 UNL1 0.000
     9 C      -5.896479    -0.879854    -0.058426 C          1 UNL1 0.000
    10 C      -6.554738    -2.116712    -0.092034 C          1 UNL1 0.000
    11 C      -5.931870    -3.257994     0.402662 C          1 UNL1 0.000
    12 C      -4.647043    -3.165936     0.921048 C          1 UNL1 0.000
    13 C      -4.000810    -1.926546     0.969997 C          1 UNL1 0.000
    14 O      -6.507685     5.559056     0.592316 O          1 UNL1 0.000
    15 C      -6.868621     5.950303    -0.733101 C          1 UNL1 0.000
    16 C      -2.482422     0.517164     0.642518 C          1 UNL1 0.000
    17 C      -1.777238     0.427552    -0.567474 C          1 UNL1 0.000
    18 C      -0.388282     0.416540    -0.567952 C          1 UNL1 0.000
    19 C       0.332131     0.462334     0.638262 C          1 UNL1 0.000
    20 C      -0.364864     0.531861     1.880702 C          1 UNL1 0.000
    21 C      -1.786114     0.568398     1.883294 C          1 UNL1 0.000
    22 C       0.301961     0.552843     3.130316 C          1 UNL1 0.000
    23 C      -0.390486     0.589530     4.341024 C          1 UNL1 0.000
    24 C      -1.774917     0.622642     4.338978 C          1 UNL1 0.000
    25 C      -2.460369     0.620163     3.126011 C          1 UNL1 0.000
    26 H      -7.534020     3.347781     1.494509 H          1 UNL1 0.000
    27 H      -6.423306     1.162091     1.567506 H          1 UNL1 0.000
    28 H      -2.910443     2.939187    -0.223589 H          1 UNL1 0.000
    29 H      -4.013794     5.109468    -0.210507 H          1 UNL1 0.000
    30 H      -6.402928    -0.027101    -0.501294 H          1 UNL1 0.000
    31 H      -7.554425    -2.185852    -0.513125 H          1 UNL1 0.000
    32 H      -6.440905    -4.217569     0.374814 H          1 UNL1 0.000
    33 H      -4.141572    -4.052837     1.294475 H          1 UNL1 0.000
    34 H      -3.001607    -1.906841     1.396599 H          1 UNL1 0.000
    35 H      -5.986880     6.112184    -1.362432 H          1 UNL1 0.000
    36 H      -7.411708     6.897916    -0.666873 H          1 UNL1 0.000
    37 H      -7.533931     5.209820    -1.191400 H          1 UNL1 0.000
    38 H      -2.320894     0.386579    -1.508270 H          1 UNL1 0.000
    39 H       0.139692     0.374738    -1.519158 H          1 UNL1 0.000
    40 H       1.389982     0.541505     3.177229 H          1 UNL1 0.000
    41 H       0.155501     0.595113     5.280391 H          1 UNL1 0.000
    42 H      -2.325863     0.651002     5.274908 H          1 UNL1 0.000
    43 H      -3.548630     0.644370     3.157252 H          1 UNL1 0.000
    44 C       1.795701     0.411829     0.569281 C          1 UNL1 0.000
    45 N       2.443934     1.604282     0.554657 N          1 UNL1 0.000
    46 C       3.794423     1.538869     0.509305 C          1 UNL1 0.000
    47 C       4.481061     0.336995     0.475277 C          1 UNL1 0.000
    48 N       3.850071    -0.858064     0.482689 N          1 UNL1 0.000
    49 C       2.496316    -0.791969     0.529798 C          1 UNL1 0.000
    50 H       4.315084     2.489631     0.503279 H          1 UNL1 0.000
    51 H       5.564032     0.303746     0.441934 H          1 UNL1 0.000
    52 H       1.981073    -1.746772     0.542013 H          1 UNL1 0.000
@<TRIPOS>BOND
     1      1      2   2
     2      2      3   1
     3      3      4   2
     4      4      5   1
     5      5      6   2
     6      6      1   1
     7      4      7   1
     8      7      8   1
     9      8      9   2
    10      9     10   1
    11     10     11   2
    12     11     12   1
    13     12     13   2
    14     13      8   1
    15     14     15   1
    16      1     14   1
    17     16     17   2
    18     17     18   1
    19     18     19   2
    20     19     20   1
    21     20     21   2
    22     21     16   1
    23     20     22   1
    24     22     23   2
    25     23     24   1
    26     24     25   2
    27     25     21   1
    28      7     16   1
    29      2     26   1
    30      3     27   1
    31      5     28   1
    32      6     29   1
    33      9     30   1
    34     10     31   1
    35     11     32   1
    36     12     33   1
    37     13     34   1
    38     15     35   1
    39     15     36   1
    40     15     37   1
    41     17     38   1
    42     18     39   1
    43     22     40   1
    44     23     41   1
    45     24     42   1
    46     25     43   1
    47     44     45   2
    48     45     46   1
    49     46     47   2
    50     47     48   1
    51     48     49   2
    52     49     44   1
    53     46     50   1
    54     47     51   1
    55     49     52   1
    56     19     44   1
