# Produced with molli package
@<TRIPOS>MOLECULE
E_6_R
55 59 0 0 0
SMALL
USER_CHARGES

@<TRIPOS>ATOM
     1 C      -6.029032     4.233953     0.832141 C          1 UNL1 0.000
     2 C      -6.574761     3.094332     1.411487 C          1 UNL1 0.000
     3 C      -5.882304     1.880657     1.350306 C          1 UNL1 0.000
     4 C      -4.630125     1.784330     0.714624 C          1 UNL1 0.000
     5 C      -4.071774     2.969504     0.199075 C          1 UNL1 0.000
     6 C      -4.764463     4.184528     0.254534 C          1 UNL1 0.000
     7 N      -3.927014     0.523923     0.628565 N          1 UNL1 0.000
     8 C      -4.602191    -0.744727     0.456305 C          1 UNL1 0.000
     9 C      -5.842460    -0.839666    -0.200412 C          1 UNL1 0.000
    10 C      -6.498230    -2.067355    -0.344936 C          1 UNL1 0.000
    11 C      -5.916989    -3.232585     0.145313 C          1 UNL1 0.000
    12 C      -4.676713    -3.172684     0.770976 C          1 UNL1 0.000
    13 C      -4.026210    -1.943882     0.920232 C          1 UNL1 0.000
    14 O      -6.747347     5.394334     0.921112 O          1 UNL1 0.000
    15 C      -7.053478     5.921808    -0.369637 C          1 UNL1 0.000
    16 C      -2.481186     0.531707     0.688546 C          1 UNL1 0.000
    17 C      -1.771315     0.443957    -0.518501 C          1 UNL1 0.000
    18 C      -0.381863     0.438183    -0.516761 C          1 UNL1 0.000
    19 C       0.339036     0.493623     0.689361 C          1 UNL1 0.000
    20 C      -0.363606     0.564253     1.929628 C          1 UNL1 0.000
    21 C      -1.785486     0.590077     1.929360 C          1 UNL1 0.000
    22 C       0.300056     0.587613     3.181417 C          1 UNL1 0.000
    23 C      -0.394329     0.622338     4.391010 C          1 UNL1 0.000
    24 C      -1.778263     0.645193     4.386112 C          1 UNL1 0.000
    25 C      -2.461818     0.634251     3.171675 C          1 UNL1 0.000
    26 H      -7.540926     3.145448     1.905176 H          1 UNL1 0.000
    27 H      -6.326621     1.008901     1.824278 H          1 UNL1 0.000
    28 H      -3.091257     2.964107    -0.269022 H          1 UNL1 0.000
    29 H      -4.299520     5.081604    -0.142639 H          1 UNL1 0.000
    30 H      -6.311711     0.043963    -0.625332 H          1 UNL1 0.000
    31 H      -7.462113    -2.109874    -0.845363 H          1 UNL1 0.000
    32 H      -6.426368    -4.186115     0.035015 H          1 UNL1 0.000
    33 H      -4.211997    -4.078948     1.150513 H          1 UNL1 0.000
    34 H      -3.065585    -1.939174     1.428401 H          1 UNL1 0.000
    35 H      -6.163925     6.339207    -0.851885 H          1 UNL1 0.000
    36 H      -7.774052     6.734425    -0.236224 H          1 UNL1 0.000
    37 H      -7.517414     5.162203    -1.009548 H          1 UNL1 0.000
    38 H      -2.312215     0.394794    -1.460595 H          1 UNL1 0.000
    39 H       0.145580     0.393383    -1.467875 H          1 UNL1 0.000
    40 H       1.387335     0.580146     3.229835 H          1 UNL1 0.000
    41 H       0.150329     0.633777     5.331125 H          1 UNL1 0.000
    42 H      -2.331227     0.671618     5.320987 H          1 UNL1 0.000
    43 H      -3.549639     0.647074     3.202747 H          1 UNL1 0.000
    44 C       1.807205     0.444856     0.622930 C          1 UNL1 0.000
    45 N       2.454597     1.615050     0.859195 N          1 UNL1 0.000
    46 C       3.810728     1.603888     0.829516 C          1 UNL1 0.000
    47 C       4.550093     0.462615     0.566734 C          1 UNL1 0.000
    48 C       3.881514    -0.735913     0.315213 C          1 UNL1 0.000
    49 C       2.486889    -0.742313     0.343974 C          1 UNL1 0.000
    50 N       6.002778     0.526280     0.561269 N          1 UNL1 0.000
    51 O       6.617114    -0.449613     0.107960 O          1 UNL1 0.000
    52 O       6.536673     1.548407     1.012377 O          1 UNL1 0.000
    53 H       4.272485     2.567801     1.029374 H          1 UNL1 0.000
    54 H       4.420721    -1.656968     0.107419 H          1 UNL1 0.000
    55 H       1.938138    -1.662760     0.164623 H          1 UNL1 0.000
@<TRIPOS>BOND
     1      1      2   2
     2      2      3   1
     3      3      4   2
     4      4      5   1
     5      5      6   2
     6      6      1   1
     7      4      7   1
     8      7      8   1
     9      8      9   2
    10      9     10   1
    11     10     11   2
    12     11     12   1
    13     12     13   2
    14     13      8   1
    15     14     15   1
    16      1     14   1
    17     16     17   2
    18     17     18   1
    19     18     19   2
    20     19     20   1
    21     20     21   2
    22     21     16   1
    23     20     22   1
    24     22     23   2
    25     23     24   1
    26     24     25   2
    27     25     21   1
    28      7     16   1
    29      2     26   1
    30      3     27   1
    31      5     28   1
    32      6     29   1
    33      9     30   1
    34     10     31   1
    35     11     32   1
    36     12     33   1
    37     13     34   1
    38     15     35   1
    39     15     36   1
    40     15     37   1
    41     17     38   1
    42     18     39   1
    43     22     40   1
    44     23     41   1
    45     24     42   1
    46     25     43   1
    47     44     45   2
    48     45     46   1
    49     46     47   2
    50     47     48   1
    51     48     49   2
    52     49     44   1
    53     50     51   2
    54     50     52   1
    55     47     50   1
    56     46     53   1
    57     48     54   1
    58     49     55   1
    59     19     44   1
