# Produced with molli package
@<TRIPOS>MOLECULE
E_6_P
58 62 0 0 0
SMALL
USER_CHARGES

@<TRIPOS>ATOM
     1 C      -5.915141     4.267209     0.731655 C          1 UNL1 0.000
     2 C      -6.489659     3.134980     1.297367 C          1 UNL1 0.000
     3 C      -5.822226     1.907344     1.233083 C          1 UNL1 0.000
     4 C      -4.567594     1.788360     0.605987 C          1 UNL1 0.000
     5 C      -3.980685     2.965564     0.103521 C          1 UNL1 0.000
     6 C      -4.647124     4.194996     0.164135 C          1 UNL1 0.000
     7 N      -3.888198     0.514324     0.515862 N          1 UNL1 0.000
     8 C      -4.588726    -0.741798     0.358913 C          1 UNL1 0.000
     9 C      -5.831098    -0.818328    -0.296675 C          1 UNL1 0.000
    10 C      -6.517704    -2.031402    -0.417565 C          1 UNL1 0.000
    11 C      -5.964937    -3.200996     0.094527 C          1 UNL1 0.000
    12 C      -4.721669    -3.160352     0.716300 C          1 UNL1 0.000
    13 C      -4.040201    -1.945703     0.841991 C          1 UNL1 0.000
    14 O      -6.609622     5.441772     0.824153 O          1 UNL1 0.000
    15 C      -6.886296     5.991190    -0.464084 C          1 UNL1 0.000
    16 C      -2.442152     0.496555     0.577459 C          1 UNL1 0.000
    17 C      -1.730624     0.381770    -0.627234 C          1 UNL1 0.000
    18 C      -0.340568     0.394058    -0.626584 C          1 UNL1 0.000
    19 C       0.376695     0.494192     0.576754 C          1 UNL1 0.000
    20 C      -0.326175     0.562511     1.816868 C          1 UNL1 0.000
    21 C      -1.747048     0.577262     1.817603 C          1 UNL1 0.000
    22 C       0.340687     0.606287     3.066247 C          1 UNL1 0.000
    23 C      -0.351591     0.657839     4.276177 C          1 UNL1 0.000
    24 C      -1.735569     0.677097     4.273154 C          1 UNL1 0.000
    25 C      -2.421629     0.640666     3.060308 C          1 UNL1 0.000
    26 H      -7.458899     3.202432     1.783068 H          1 UNL1 0.000
    27 H      -6.288984     1.042697     1.698393 H          1 UNL1 0.000
    28 H      -2.997189     2.942137    -0.357649 H          1 UNL1 0.000
    29 H      -4.159497     5.084939    -0.221470 H          1 UNL1 0.000
    30 H      -6.278436     0.069259    -0.736787 H          1 UNL1 0.000
    31 H      -7.483268    -2.059059    -0.915691 H          1 UNL1 0.000
    32 H      -6.498378    -4.143333     0.003832 H          1 UNL1 0.000
    33 H      -4.278489    -4.070665     1.111612 H          1 UNL1 0.000
    34 H      -3.078194    -1.954701     1.347916 H          1 UNL1 0.000
    35 H      -5.981071     6.393309    -0.929858 H          1 UNL1 0.000
    36 H      -7.589347     6.818974    -0.330422 H          1 UNL1 0.000
    37 H      -7.359298     5.250073    -1.118837 H          1 UNL1 0.000
    38 H      -2.270407     0.307991    -1.568262 H          1 UNL1 0.000
    39 H       0.190342     0.334446    -1.574907 H          1 UNL1 0.000
    40 H       1.428285     0.587410     3.112318 H          1 UNL1 0.000
    41 H       0.195595     0.679743     5.214648 H          1 UNL1 0.000
    42 H      -2.286801     0.715106     5.208590 H          1 UNL1 0.000
    43 H      -3.509263     0.646545     3.092996 H          1 UNL1 0.000
    44 C       1.847154     0.546584     0.509805 C          1 UNL1 0.000
    45 C       2.613474    -0.629319     0.467227 C          1 UNL1 0.000
    46 C       4.010384    -0.569334     0.457080 C          1 UNL1 0.000
    47 C       4.647290     0.669912     0.474237 C          1 UNL1 0.000
    48 C       3.905154     1.845689     0.525425 C          1 UNL1 0.000
    49 C       2.511064     1.784468     0.529997 C          1 UNL1 0.000
    50 O       6.009903     0.775092     0.527703 O          1 UNL1 0.000
    51 C       6.602305     0.373994    -0.706405 C          1 UNL1 0.000
    52 H       2.121065    -1.599691     0.469842 H          1 UNL1 0.000
    53 H       4.589942    -1.487431     0.463097 H          1 UNL1 0.000
    54 H       4.409559     2.806580     0.566767 H          1 UNL1 0.000
    55 H       1.938331     2.708727     0.573465 H          1 UNL1 0.000
    56 H       7.648977     0.692977    -0.691945 H          1 UNL1 0.000
    57 H       6.115441     0.855890    -1.562105 H          1 UNL1 0.000
    58 H       6.581309    -0.714905    -0.815168 H          1 UNL1 0.000
@<TRIPOS>BOND
     1      1      2   2
     2      2      3   1
     3      3      4   2
     4      4      5   1
     5      5      6   2
     6      6      1   1
     7      4      7   1
     8      7      8   1
     9      8      9   2
    10      9     10   1
    11     10     11   2
    12     11     12   1
    13     12     13   2
    14     13      8   1
    15     14     15   1
    16      1     14   1
    17     16     17   2
    18     17     18   1
    19     18     19   2
    20     19     20   1
    21     20     21   2
    22     21     16   1
    23     20     22   1
    24     22     23   2
    25     23     24   1
    26     24     25   2
    27     25     21   1
    28      7     16   1
    29      2     26   1
    30      3     27   1
    31      5     28   1
    32      6     29   1
    33      9     30   1
    34     10     31   1
    35     11     32   1
    36     12     33   1
    37     13     34   1
    38     15     35   1
    39     15     36   1
    40     15     37   1
    41     17     38   1
    42     18     39   1
    43     22     40   1
    44     23     41   1
    45     24     42   1
    46     25     43   1
    47     44     45   2
    48     45     46   1
    49     46     47   2
    50     47     48   1
    51     48     49   2
    52     49     44   1
    53     50     51   1
    54     47     50   1
    55     45     52   1
    56     46     53   1
    57     48     54   1
    58     49     55   1
    59     51     56   1
    60     51     57   1
    61     51     58   1
    62     19     44   1
