# Produced with molli package
@<TRIPOS>MOLECULE
E_6_K
56 60 0 0 0
SMALL
USER_CHARGES

@<TRIPOS>ATOM
     1 C      -5.890003     4.425840     0.228009 C          1 UNL1 0.000
     2 C      -6.438508     3.302818    -0.386826 C          1 UNL1 0.000
     3 C      -5.789896     2.061019    -0.296379 C          1 UNL1 0.000
     4 C      -4.593702     1.908723     0.425728 C          1 UNL1 0.000
     5 C      -4.050462     3.063370     1.018285 C          1 UNL1 0.000
     6 C      -4.698351     4.299036     0.934841 C          1 UNL1 0.000
     7 N      -3.929857     0.629969     0.543950 N          1 UNL1 0.000
     8 C      -4.633136    -0.633696     0.621057 C          1 UNL1 0.000
     9 C      -5.934544    -0.726765     1.146884 C          1 UNL1 0.000
    10 C      -6.601152    -1.954764     1.232342 C          1 UNL1 0.000
    11 C      -5.973190    -3.122865     0.811749 C          1 UNL1 0.000
    12 C      -4.677352    -3.064912     0.311584 C          1 UNL1 0.000
    13 C      -4.015716    -1.835734     0.220649 C          1 UNL1 0.000
    14 O      -6.436314     5.678360     0.236728 O          1 UNL1 0.000
    15 C      -7.277608     5.994315    -0.865272 C          1 UNL1 0.000
    16 C      -2.484118     0.619426     0.623427 C          1 UNL1 0.000
    17 C      -1.760218     0.712721    -0.575087 C          1 UNL1 0.000
    18 C      -0.371485     0.678156    -0.559717 C          1 UNL1 0.000
    19 C       0.331595     0.578295     0.652346 C          1 UNL1 0.000
    20 C      -0.383386     0.521597     1.885980 C          1 UNL1 0.000
    21 C      -1.804119     0.528040     1.871316 C          1 UNL1 0.000
    22 C       0.268054     0.469400     3.143115 C          1 UNL1 0.000
    23 C      -0.439166     0.435579     4.345397 C          1 UNL1 0.000
    24 C      -1.823258     0.437658     4.326858 C          1 UNL1 0.000
    25 C      -2.494010     0.476562     3.106177 C          1 UNL1 0.000
    26 H      -7.376110     3.353981    -0.930040 H          1 UNL1 0.000
    27 H      -6.231944     1.210561    -0.810179 H          1 UNL1 0.000
    28 H      -3.122923     3.019674     1.582078 H          1 UNL1 0.000
    29 H      -4.263067     5.167379     1.422915 H          1 UNL1 0.000
    30 H      -6.442109     0.155940     1.526813 H          1 UNL1 0.000
    31 H      -7.608004    -1.996460     1.639669 H          1 UNL1 0.000
    32 H      -6.487771    -4.077368     0.883668 H          1 UNL1 0.000
    33 H      -4.174178    -3.974311    -0.006798 H          1 UNL1 0.000
    34 H      -3.004964    -1.835860    -0.178128 H          1 UNL1 0.000
    35 H      -6.770769     5.802093    -1.817034 H          1 UNL1 0.000
    36 H      -7.500665     7.064599    -0.815413 H          1 UNL1 0.000
    37 H      -8.227419     5.454431    -0.806793 H          1 UNL1 0.000
    38 H      -2.289852     0.790087    -1.521628 H          1 UNL1 0.000
    39 H       0.168479     0.728880    -1.503505 H          1 UNL1 0.000
    40 H       1.354625     0.467642     3.202806 H          1 UNL1 0.000
    41 H       0.095272     0.410723     5.291163 H          1 UNL1 0.000
    42 H      -2.386372     0.414808     5.255791 H          1 UNL1 0.000
    43 H      -3.582405     0.485685     3.125771 H          1 UNL1 0.000
    44 C       1.802044     0.533791     0.596647 C          1 UNL1 0.000
    45 C       2.557861     1.715782     0.671768 C          1 UNL1 0.000
    46 C       3.954506     1.673169     0.651131 C          1 UNL1 0.000
    47 C       4.602009     0.436856     0.545390 C          1 UNL1 0.000
    48 C       3.867952    -0.751439     0.455177 C          1 UNL1 0.000
    49 C       2.471999    -0.696510     0.482051 C          1 UNL1 0.000
    50 N       6.065965     0.383774     0.536821 N          1 UNL1 0.000
    51 O       6.678273     1.369085     0.975778 O          1 UNL1 0.000
    52 O       6.601765    -0.641198     0.094997 O          1 UNL1 0.000
    53 H       2.053787     2.677386     0.759541 H          1 UNL1 0.000
    54 H       4.516674     2.602246     0.719572 H          1 UNL1 0.000
    55 H       4.361723    -1.717501     0.374556 H          1 UNL1 0.000
    56 H       1.900567    -1.622173     0.424255 H          1 UNL1 0.000
@<TRIPOS>BOND
     1      1      2   2
     2      2      3   1
     3      3      4   2
     4      4      5   1
     5      5      6   2
     6      6      1   1
     7      4      7   1
     8      7      8   1
     9      8      9   2
    10      9     10   1
    11     10     11   2
    12     11     12   1
    13     12     13   2
    14     13      8   1
    15     14     15   1
    16      1     14   1
    17     16     17   2
    18     17     18   1
    19     18     19   2
    20     19     20   1
    21     20     21   2
    22     21     16   1
    23     20     22   1
    24     22     23   2
    25     23     24   1
    26     24     25   2
    27     25     21   1
    28      7     16   1
    29      2     26   1
    30      3     27   1
    31      5     28   1
    32      6     29   1
    33      9     30   1
    34     10     31   1
    35     11     32   1
    36     12     33   1
    37     13     34   1
    38     15     35   1
    39     15     36   1
    40     15     37   1
    41     17     38   1
    42     18     39   1
    43     22     40   1
    44     23     41   1
    45     24     42   1
    46     25     43   1
    47     44     45   2
    48     45     46   1
    49     46     47   2
    50     47     48   1
    51     48     49   2
    52     49     44   1
    53     50     51   2
    54     50     52   1
    55     47     50   1
    56     45     53   1
    57     46     54   1
    58     48     55   1
    59     49     56   1
    60     19     44   1
