# Produced with molli package
@<TRIPOS>MOLECULE
E_6_N
51 55 0 0 0
SMALL
USER_CHARGES

@<TRIPOS>ATOM
     1 C      -5.940810     4.388277     0.599072 C          1 UNL1 0.000
     2 C      -6.573561     3.284963     1.158131 C          1 UNL1 0.000
     3 C      -5.924196     2.044321     1.178155 C          1 UNL1 0.000
     4 C      -4.639586     1.879271     0.627730 C          1 UNL1 0.000
     5 C      -3.997737     3.038130     0.142060 C          1 UNL1 0.000
     6 C      -4.638558     4.281583     0.128257 C          1 UNL1 0.000
     7 N      -3.979223     0.589426     0.595777 N          1 UNL1 0.000
     8 C      -4.673257    -0.676852     0.453700 C          1 UNL1 0.000
     9 C      -5.952034    -0.774726    -0.122633 C          1 UNL1 0.000
    10 C      -6.616923    -2.003436    -0.227095 C          1 UNL1 0.000
    11 C      -6.002483    -3.172800     0.208338 C          1 UNL1 0.000
    12 C      -4.720778    -3.115690     0.740615 C          1 UNL1 0.000
    13 C      -4.067225    -1.884800     0.860427 C          1 UNL1 0.000
    14 O      -6.602656     5.584717     0.591042 O          1 UNL1 0.000
    15 C      -6.959976     5.949342    -0.743424 C          1 UNL1 0.000
    16 C      -2.530921     0.566522     0.650673 C          1 UNL1 0.000
    17 C      -1.827270     0.496853    -0.563607 C          1 UNL1 0.000
    18 C      -0.439089     0.491408    -0.568963 C          1 UNL1 0.000
    19 C       0.268546     0.526542     0.639610 C          1 UNL1 0.000
    20 C      -0.412899     0.549311     1.888899 C          1 UNL1 0.000
    21 C      -1.833344     0.585922     1.893377 C          1 UNL1 0.000
    22 C       0.258295     0.519702     3.136747 C          1 UNL1 0.000
    23 C      -0.431833     0.522955     4.348981 C          1 UNL1 0.000
    24 C      -1.816325     0.567868     4.349835 C          1 UNL1 0.000
    25 C      -2.504923     0.604122     3.138422 C          1 UNL1 0.000
    26 H      -7.571950     3.384825     1.573891 H          1 UNL1 0.000
    27 H      -6.436155     1.207654     1.646261 H          1 UNL1 0.000
    28 H      -2.985901     2.993871    -0.250373 H          1 UNL1 0.000
    29 H      -4.113069     5.154732    -0.246700 H          1 UNL1 0.000
    30 H      -6.452369     0.103429    -0.520562 H          1 UNL1 0.000
    31 H      -7.614202    -2.043480    -0.657549 H          1 UNL1 0.000
    32 H      -6.515996    -4.126656     0.123983 H          1 UNL1 0.000
    33 H      -4.223095    -4.024584     1.068810 H          1 UNL1 0.000
    34 H      -3.070603    -1.891675     1.294016 H          1 UNL1 0.000
    35 H      -6.075657     6.177420    -1.347989 H          1 UNL1 0.000
    36 H      -7.573606     6.853724    -0.691602 H          1 UNL1 0.000
    37 H      -7.556235     5.163092    -1.220820 H          1 UNL1 0.000
    38 H      -2.373328     0.467427    -1.503408 H          1 UNL1 0.000
    39 H       0.090341     0.462536    -1.518784 H          1 UNL1 0.000
    40 H       1.345594     0.478116     3.177121 H          1 UNL1 0.000
    41 H       0.115475     0.487076     5.286960 H          1 UNL1 0.000
    42 H      -2.365318     0.567988     5.287455 H          1 UNL1 0.000
    43 H      -3.593021     0.628470     3.172238 H          1 UNL1 0.000
    44 C       1.724206     0.526813     0.556525 C          1 UNL1 0.000
    45 C       2.444920     1.702122     0.634612 C          1 UNL1 0.000
    46 S       4.131223     1.434785     0.509567 S          1 UNL1 0.000
    47 C       3.907173    -0.252628     0.336351 C          1 UNL1 0.000
    48 C       2.575861    -0.605272     0.373130 C          1 UNL1 0.000
    49 H       2.067090     2.707659     0.765649 H          1 UNL1 0.000
    50 H       4.761756    -0.903892     0.215294 H          1 UNL1 0.000
    51 H       2.228182    -1.627129     0.280446 H          1 UNL1 0.000
@<TRIPOS>BOND
     1      1      2   2
     2      2      3   1
     3      3      4   2
     4      4      5   1
     5      5      6   2
     6      6      1   1
     7      4      7   1
     8      7      8   1
     9      8      9   2
    10      9     10   1
    11     10     11   2
    12     11     12   1
    13     12     13   2
    14     13      8   1
    15     14     15   1
    16      1     14   1
    17     16     17   2
    18     17     18   1
    19     18     19   2
    20     19     20   1
    21     20     21   2
    22     21     16   1
    23     20     22   1
    24     22     23   2
    25     23     24   1
    26     24     25   2
    27     25     21   1
    28      7     16   1
    29      2     26   1
    30      3     27   1
    31      5     28   1
    32      6     29   1
    33      9     30   1
    34     10     31   1
    35     11     32   1
    36     12     33   1
    37     13     34   1
    38     15     35   1
    39     15     36   1
    40     15     37   1
    41     17     38   1
    42     18     39   1
    43     22     40   1
    44     23     41   1
    45     24     42   1
    46     25     43   1
    47     44     45   2
    48     45     46   1
    49     46     47   1
    50     47     48   2
    51     48     44   1
    52     45     49   1
    53     47     50   1
    54     48     51   1
    55     19     44   1
