# Produced with molli package
@<TRIPOS>MOLECULE
E_6_M
55 59 0 0 0
SMALL
USER_CHARGES

@<TRIPOS>ATOM
     1 C      -5.964713     4.345119     0.624736 C          1 UNL1 0.000
     2 C      -6.641703     3.201149     1.024722 C          1 UNL1 0.000
     3 C      -5.981163     1.964896     1.028795 C          1 UNL1 0.000
     4 C      -4.646788     1.836441     0.599007 C          1 UNL1 0.000
     5 C      -3.976002     3.033358     0.260459 C          1 UNL1 0.000
     6 C      -4.622341     4.275757     0.280466 C          1 UNL1 0.000
     7 N      -3.959826     0.556128     0.551568 N          1 UNL1 0.000
     8 C      -4.618681    -0.735183     0.448260 C          1 UNL1 0.000
     9 C      -5.895344    -0.895086    -0.116921 C          1 UNL1 0.000
    10 C      -6.538424    -2.140451    -0.139308 C          1 UNL1 0.000
    11 C      -5.895523    -3.271822     0.351180 C          1 UNL1 0.000
    12 C      -4.604141    -3.161570     0.848740 C          1 UNL1 0.000
    13 C      -3.977530    -1.911641     0.895734 C          1 UNL1 0.000
    14 O      -6.607526     5.550689     0.665315 O          1 UNL1 0.000
    15 C      -7.072195     5.905009    -0.637924 C          1 UNL1 0.000
    16 C      -2.509542     0.560223     0.618063 C          1 UNL1 0.000
    17 C      -1.795641     0.468789    -0.587052 C          1 UNL1 0.000
    18 C      -0.406021     0.461149    -0.579731 C          1 UNL1 0.000
    19 C       0.308482     0.520316     0.628793 C          1 UNL1 0.000
    20 C      -0.397301     0.584833     1.867220 C          1 UNL1 0.000
    21 C      -1.818671     0.618907     1.862378 C          1 UNL1 0.000
    22 C       0.263827     0.602133     3.119883 C          1 UNL1 0.000
    23 C      -0.434411     0.647226     4.326982 C          1 UNL1 0.000
    24 C      -1.818406     0.686092     4.317789 C          1 UNL1 0.000
    25 C      -2.499019     0.675539     3.101693 C          1 UNL1 0.000
    26 H      -7.677776     3.266377     1.343970 H          1 UNL1 0.000
    27 H      -6.532660     1.107092     1.402091 H          1 UNL1 0.000
    28 H      -2.927978     3.024705    -0.026368 H          1 UNL1 0.000
    29 H      -4.071743     5.178470     0.032999 H          1 UNL1 0.000
    30 H      -6.416444    -0.054070    -0.564635 H          1 UNL1 0.000
    31 H      -7.542861    -2.223156    -0.546559 H          1 UNL1 0.000
    32 H      -6.393201    -4.237572     0.334328 H          1 UNL1 0.000
    33 H      -4.079457    -4.041768     1.211313 H          1 UNL1 0.000
    34 H      -2.973521    -1.879099     1.310470 H          1 UNL1 0.000
    35 H      -6.237816     6.056884    -1.331361 H          1 UNL1 0.000
    36 H      -7.617456     6.850171    -0.553877 H          1 UNL1 0.000
    37 H      -7.762924     5.150314    -1.030707 H          1 UNL1 0.000
    38 H      -2.333246     0.415593    -1.530723 H          1 UNL1 0.000
    39 H       0.126712     0.406331    -1.527478 H          1 UNL1 0.000
    40 H       1.350452     0.568051     3.171575 H          1 UNL1 0.000
    41 H       0.106866     0.648883     5.269227 H          1 UNL1 0.000
    42 H      -2.373907     0.719117     5.251032 H          1 UNL1 0.000
    43 H      -3.587183     0.697189     3.128018 H          1 UNL1 0.000
    44 C       1.779834     0.514100     0.561875 C          1 UNL1 0.000
    45 C       2.497070     1.720457     0.536061 C          1 UNL1 0.000
    46 C       3.894361     1.720634     0.487877 C          1 UNL1 0.000
    47 C       4.594548     0.511203     0.462143 C          1 UNL1 0.000
    48 C       3.890995    -0.696792     0.481241 C          1 UNL1 0.000
    49 C       2.493165    -0.694016     0.528995 C          1 UNL1 0.000
    50 C       6.028419     0.510391     0.419520 C          1 UNL1 0.000
    51 N       7.187374     0.510755     0.386538 N          1 UNL1 0.000
    52 H       1.964006     2.669718     0.561433 H          1 UNL1 0.000
    53 H       4.427325     2.669620     0.474011 H          1 UNL1 0.000
    54 H       4.422264    -1.646694     0.462520 H          1 UNL1 0.000
    55 H       1.958080    -1.642149     0.549490 H          1 UNL1 0.000
@<TRIPOS>BOND
     1      1      2   2
     2      2      3   1
     3      3      4   2
     4      4      5   1
     5      5      6   2
     6      6      1   1
     7      4      7   1
     8      7      8   1
     9      8      9   2
    10      9     10   1
    11     10     11   2
    12     11     12   1
    13     12     13   2
    14     13      8   1
    15     14     15   1
    16      1     14   1
    17     16     17   2
    18     17     18   1
    19     18     19   2
    20     19     20   1
    21     20     21   2
    22     21     16   1
    23     20     22   1
    24     22     23   2
    25     23     24   1
    26     24     25   2
    27     25     21   1
    28      7     16   1
    29      2     26   1
    30      3     27   1
    31      5     28   1
    32      6     29   1
    33      9     30   1
    34     10     31   1
    35     11     32   1
    36     12     33   1
    37     13     34   1
    38     15     35   1
    39     15     36   1
    40     15     37   1
    41     17     38   1
    42     18     39   1
    43     22     40   1
    44     23     41   1
    45     24     42   1
    46     25     43   1
    47     44     45   2
    48     45     46   1
    49     46     47   2
    50     47     48   1
    51     48     49   2
    52     49     44   1
    53     50     51   3
    54     47     50   1
    55     45     52   1
    56     46     53   1
    57     48     54   1
    58     49     55   1
    59     19     44   1
