# Produced with molli package
@<TRIPOS>MOLECULE
E_6_L
58 63 0 0 0
SMALL
USER_CHARGES

@<TRIPOS>ATOM
     1 C      -5.956151     4.295266     0.690699 C          1 UNL1 0.000
     2 C      -6.582675     3.150213     1.166127 C          1 UNL1 0.000
     3 C      -5.915749     1.920019     1.121991 C          1 UNL1 0.000
     4 C      -4.615934     1.806678     0.593613 C          1 UNL1 0.000
     5 C      -3.987396     2.999169     0.178388 C          1 UNL1 0.000
     6 C      -4.646970     4.232681     0.229167 C          1 UNL1 0.000
     7 N      -3.924585     0.534636     0.526658 N          1 UNL1 0.000
     8 C      -4.596478    -0.744455     0.413898 C          1 UNL1 0.000
     9 C      -5.841058    -0.880254    -0.225762 C          1 UNL1 0.000
    10 C      -6.497736    -2.115437    -0.290380 C          1 UNL1 0.000
    11 C      -5.908207    -3.252061     0.254233 C          1 UNL1 0.000
    12 C      -4.656567    -3.157627     0.850209 C          1 UNL1 0.000
    13 C      -4.008806    -1.920615     0.924002 C          1 UNL1 0.000
    14 O      -6.633329     5.480608     0.768550 O          1 UNL1 0.000
    15 C      -6.928987     5.984585    -0.534360 C          1 UNL1 0.000
    16 C      -2.477458     0.535710     0.597821 C          1 UNL1 0.000
    17 C      -1.758607     0.440660    -0.604098 C          1 UNL1 0.000
    18 C      -0.369294     0.437804    -0.591550 C          1 UNL1 0.000
    19 C       0.338990     0.500899     0.620010 C          1 UNL1 0.000
    20 C      -0.372354     0.564226     1.855513 C          1 UNL1 0.000
    21 C      -1.792257     0.598733     1.844782 C          1 UNL1 0.000
    22 C       0.283779     0.576752     3.111107 C          1 UNL1 0.000
    23 C      -0.419065     0.619587     4.315634 C          1 UNL1 0.000
    24 C      -1.802529     0.662795     4.300992 C          1 UNL1 0.000
    25 C      -2.477762     0.656604     3.081889 C          1 UNL1 0.000
    26 H      -7.588239     3.210032     1.572278 H          1 UNL1 0.000
    27 H      -6.424529     1.051849     1.532298 H          1 UNL1 0.000
    28 H      -2.968079     2.989479    -0.197978 H          1 UNL1 0.000
    29 H      -4.125825     5.133461    -0.080514 H          1 UNL1 0.000
    30 H      -6.316448    -0.024498    -0.697555 H          1 UNL1 0.000
    31 H      -7.469692    -2.186838    -0.771439 H          1 UNL1 0.000
    32 H      -6.417703    -4.210611     0.206618 H          1 UNL1 0.000
    33 H      -4.179373    -4.041296     1.266003 H          1 UNL1 0.000
    34 H      -3.037598    -1.893380     1.411095 H          1 UNL1 0.000
    35 H      -6.020403     6.292149    -1.062350 H          1 UNL1 0.000
    36 H      -7.562932     6.868483    -0.415410 H          1 UNL1 0.000
    37 H      -7.484519     5.247379    -1.125344 H          1 UNL1 0.000
    38 H      -2.291727     0.383060    -1.549938 H          1 UNL1 0.000
    39 H       0.169949     0.381925    -1.535570 H          1 UNL1 0.000
    40 H       1.370440     0.537689     3.165305 H          1 UNL1 0.000
    41 H       0.119497     0.614989     5.259249 H          1 UNL1 0.000
    42 H      -2.362046     0.693866     5.231740 H          1 UNL1 0.000
    43 H      -3.565597     0.679630     3.104051 H          1 UNL1 0.000
    44 C       1.810984     0.492437     0.564315 C          1 UNL1 0.000
    45 C       2.528918     1.697224     0.583754 C          1 UNL1 0.000
    46 C       3.928313     1.721779     0.569991 C          1 UNL1 0.000
    47 C       4.594248     0.492787     0.535442 C          1 UNL1 0.000
    48 C       3.921149    -0.727851     0.503881 C          1 UNL1 0.000
    49 C       2.512480    -0.726638     0.513128 C          1 UNL1 0.000
    50 N       5.942133     0.211706     0.528946 N          1 UNL1 0.000
    51 C       6.143146    -1.142816     0.494669 C          1 UNL1 0.000
    52 C       4.908729    -1.750803     0.475256 C          1 UNL1 0.000
    53 H       1.989446     2.642617     0.623417 H          1 UNL1 0.000
    54 H       4.467763     2.662757     0.594626 H          1 UNL1 0.000
    55 H       1.971647    -1.669285     0.498873 H          1 UNL1 0.000
    56 H       6.672666     0.909535     0.551869 H          1 UNL1 0.000
    57 H       7.142889    -1.555498     0.488376 H          1 UNL1 0.000
    58 H       4.730888    -2.817804     0.448856 H          1 UNL1 0.000
@<TRIPOS>BOND
     1      1      2   2
     2      2      3   1
     3      3      4   2
     4      4      5   1
     5      5      6   2
     6      6      1   1
     7      4      7   1
     8      7      8   1
     9      8      9   2
    10      9     10   1
    11     10     11   2
    12     11     12   1
    13     12     13   2
    14     13      8   1
    15     14     15   1
    16      1     14   1
    17     16     17   2
    18     17     18   1
    19     18     19   2
    20     19     20   1
    21     20     21   2
    22     21     16   1
    23     20     22   1
    24     22     23   2
    25     23     24   1
    26     24     25   2
    27     25     21   1
    28      7     16   1
    29      2     26   1
    30      3     27   1
    31      5     28   1
    32      6     29   1
    33      9     30   1
    34     10     31   1
    35     11     32   1
    36     12     33   1
    37     13     34   1
    38     15     35   1
    39     15     36   1
    40     15     37   1
    41     17     38   1
    42     18     39   1
    43     22     40   1
    44     23     41   1
    45     24     42   1
    46     25     43   1
    47     44     45   2
    48     45     46   1
    49     46     47   2
    50     47     48   1
    51     48     49   2
    52     49     44   1
    53     47     50   1
    54     50     51   1
    55     51     52   2
    56     52     48   1
    57     45     53   1
    58     46     54   1
    59     49     55   1
    60     50     56   1
    61     51     57   1
    62     52     58   1
    63     19     44   1
