# Produced with molli package
@<TRIPOS>MOLECULE
E_6_S
59 63 0 0 0
SMALL
USER_CHARGES

@<TRIPOS>ATOM
     1 C      -5.872574     4.279075     0.482303 C          1 UNL1 0.000
     2 C      -6.619077     3.118010     0.331180 C          1 UNL1 0.000
     3 C      -5.981139     1.865322     0.279295 C          1 UNL1 0.000
     4 C      -4.598004     1.727541     0.474198 C          1 UNL1 0.000
     5 C      -3.878123     2.945303     0.610260 C          1 UNL1 0.000
     6 C      -4.498623     4.200503     0.612999 C          1 UNL1 0.000
     7 N      -3.890246     0.450623     0.518217 N          1 UNL1 0.000
     8 C      -4.465539    -0.890198     0.527283 C          1 UNL1 0.000
     9 C      -5.764872    -1.191689     0.958799 C          1 UNL1 0.000
    10 C      -6.288369    -2.494789     0.884365 C          1 UNL1 0.000
    11 C      -5.499041    -3.552627     0.447933 C          1 UNL1 0.000
    12 C      -4.180349    -3.311459     0.100521 C          1 UNL1 0.000
    13 C      -3.679923    -2.004815     0.136317 C          1 UNL1 0.000
    14 O      -6.478281     5.499299     0.579769 O          1 UNL1 0.000
    15 C      -6.869984     5.971751    -0.708386 C          1 UNL1 0.000
    16 C      -2.436265     0.515456     0.558996 C          1 UNL1 0.000
    17 C      -1.744268     0.584985    -0.662200 C          1 UNL1 0.000
    18 C      -0.356673     0.605487    -0.676168 C          1 UNL1 0.000
    19 C       0.372276     0.580900     0.524540 C          1 UNL1 0.000
    20 C      -0.312634     0.553644     1.777406 C          1 UNL1 0.000
    21 C      -1.731109     0.512217     1.796492 C          1 UNL1 0.000
    22 C       0.367690     0.571865     3.020195 C          1 UNL1 0.000
    23 C      -0.310889     0.556764     4.239123 C          1 UNL1 0.000
    24 C      -1.694653     0.514635     4.252671 C          1 UNL1 0.000
    25 C      -2.393541     0.488813     3.047073 C          1 UNL1 0.000
    26 H      -7.701053     3.176367     0.253238 H          1 UNL1 0.000
    27 H      -6.619349     1.018980     0.065287 H          1 UNL1 0.000
    28 H      -2.797119     2.952204     0.725173 H          1 UNL1 0.000
    29 H      -3.902609     5.101209     0.726901 H          1 UNL1 0.000
    30 H      -6.401826    -0.440922     1.409989 H          1 UNL1 0.000
    31 H      -7.315276    -2.682676     1.188287 H          1 UNL1 0.000
    32 H      -5.900418    -4.561220     0.402760 H          1 UNL1 0.000
    33 H      -3.531693    -4.129793    -0.201360 H          1 UNL1 0.000
    34 H      -2.639501    -1.886190    -0.152639 H          1 UNL1 0.000
    35 H      -5.990645     6.185087    -1.325866 H          1 UNL1 0.000
    36 H      -7.421628     6.906303    -0.567808 H          1 UNL1 0.000
    37 H      -7.532328     5.264155    -1.218269 H          1 UNL1 0.000
    38 H      -2.299585     0.596545    -1.597018 H          1 UNL1 0.000
    39 H       0.162662     0.632854    -1.632205 H          1 UNL1 0.000
    40 H       1.454938     0.610135     3.053807 H          1 UNL1 0.000
    41 H       0.245832     0.581903     5.171933 H          1 UNL1 0.000
    42 H      -2.235170     0.506752     5.195161 H          1 UNL1 0.000
    43 H      -3.481117     0.463185     3.089528 H          1 UNL1 0.000
    44 C       1.840442     0.571453     0.442751 C          1 UNL1 0.000
    45 C       2.566672     1.767049     0.410633 C          1 UNL1 0.000
    46 C       3.964335     1.746841     0.392273 C          1 UNL1 0.000
    47 C       4.667482     0.532053     0.398249 C          1 UNL1 0.000
    48 C       3.943640    -0.664380     0.407897 C          1 UNL1 0.000
    49 C       2.543583    -0.641647     0.428830 C          1 UNL1 0.000
    50 C       6.162100     0.595592     0.412443 C          1 UNL1 0.000
    51 C       7.000853    -0.651726     0.302346 C          1 UNL1 0.000
    52 O       6.714287     1.695029     0.500795 O          1 UNL1 0.000
    53 H       2.047230     2.723567     0.420693 H          1 UNL1 0.000
    54 H       4.503146     2.693419     0.383975 H          1 UNL1 0.000
    55 H       4.423590    -1.636026     0.416678 H          1 UNL1 0.000
    56 H       1.996401    -1.583234     0.454598 H          1 UNL1 0.000
    57 H       7.525789    -0.637600    -0.656878 H          1 UNL1 0.000
    58 H       6.437592    -1.579460     0.371065 H          1 UNL1 0.000
    59 H       7.730243    -0.653473     1.118164 H          1 UNL1 0.000
@<TRIPOS>BOND
     1      1      2   2
     2      2      3   1
     3      3      4   2
     4      4      5   1
     5      5      6   2
     6      6      1   1
     7      4      7   1
     8      7      8   1
     9      8      9   2
    10      9     10   1
    11     10     11   2
    12     11     12   1
    13     12     13   2
    14     13      8   1
    15     14     15   1
    16      1     14   1
    17     16     17   2
    18     17     18   1
    19     18     19   2
    20     19     20   1
    21     20     21   2
    22     21     16   1
    23     20     22   1
    24     22     23   2
    25     23     24   1
    26     24     25   2
    27     25     21   1
    28      7     16   1
    29      2     26   1
    30      3     27   1
    31      5     28   1
    32      6     29   1
    33      9     30   1
    34     10     31   1
    35     11     32   1
    36     12     33   1
    37     13     34   1
    38     15     35   1
    39     15     36   1
    40     15     37   1
    41     17     38   1
    42     18     39   1
    43     22     40   1
    44     23     41   1
    45     24     42   1
    46     25     43   1
    47     44     45   2
    48     45     46   1
    49     46     47   2
    50     47     48   1
    51     48     49   2
    52     49     44   1
    53     47     50   1
    54     50     51   1
    55     50     52   2
    56     45     53   1
    57     46     54   1
    58     48     55   1
    59     49     56   1
    60     51     57   1
    61     51     58   1
    62     51     59   1
    63     19     44   1
