# Produced with molli package
@<TRIPOS>MOLECULE
E_7_T
55 58 0 0 0
SMALL
USER_CHARGES

@<TRIPOS>ATOM
     1 C      -8.201629     4.341805    -0.690569 C          1 UNL1 0.000
     2 C      -8.743669     3.231366    -0.050294 C          1 UNL1 0.000
     3 C      -8.066895     2.007444    -0.075020 C          1 UNL1 0.000
     4 C      -6.830722     1.876003    -0.730985 C          1 UNL1 0.000
     5 C      -6.276717     3.028379    -1.320927 C          1 UNL1 0.000
     6 C      -6.953831     4.252107    -1.300503 C          1 UNL1 0.000
     7 N      -6.137104     0.611456    -0.789958 N          1 UNL1 0.000
     8 C      -6.834695    -0.647003    -0.922004 C          1 UNL1 0.000
     9 C      -8.046900    -0.748532    -1.627486 C          1 UNL1 0.000
    10 C      -8.721979    -1.968833    -1.736630 C          1 UNL1 0.000
    11 C      -8.191061    -3.116093    -1.153701 C          1 UNL1 0.000
    12 C      -6.983376    -3.046004    -0.466407 C          1 UNL1 0.000
    13 C      -6.312138    -1.824898    -0.353904 C          1 UNL1 0.000
    14 O      -8.917374     5.505853    -0.628603 O          1 UNL1 0.000
    15 C      -9.125481     6.084522    -1.916360 C          1 UNL1 0.000
    16 C      -4.701478     0.608352    -0.718264 C          1 UNL1 0.000
    17 C      -3.933395     0.123673    -1.785011 C          1 UNL1 0.000
    18 C      -2.536401     0.126702    -1.712147 C          1 UNL1 0.000
    19 C      -1.876935     0.585498    -0.562855 C          1 UNL1 0.000
    20 C      -2.648756     1.076734     0.498624 C          1 UNL1 0.000
    21 C      -4.045487     1.093310     0.420699 C          1 UNL1 0.000
    22 C      -0.404722     0.571089    -0.543020 C          1 UNL1 0.000
    23 C       0.350173     0.565073     0.567191 C          1 UNL1 0.000
    24 H      -9.699166     3.312707     0.460258 H          1 UNL1 0.000
    25 H      -8.509895     1.157280     0.437841 H          1 UNL1 0.000
    26 H      -5.312875     2.979926    -1.822228 H          1 UNL1 0.000
    27 H      -6.487096     5.121601    -1.752050 H          1 UNL1 0.000
    28 H      -8.473854     0.123583    -2.116299 H          1 UNL1 0.000
    29 H      -9.661066    -2.020598    -2.281308 H          1 UNL1 0.000
    30 H      -8.715680    -4.064130    -1.237646 H          1 UNL1 0.000
    31 H      -6.561372    -3.938315    -0.011489 H          1 UNL1 0.000
    32 H      -5.379375    -1.800058     0.204625 H          1 UNL1 0.000
    33 H      -8.207885     6.538629    -2.302969 H          1 UNL1 0.000
    34 H      -9.870058     6.879088    -1.808690 H          1 UNL1 0.000
    35 H      -9.520492     5.347290    -2.624923 H          1 UNL1 0.000
    36 H      -4.424063    -0.238126    -2.685297 H          1 UNL1 0.000
    37 H      -1.969583    -0.241667    -2.564459 H          1 UNL1 0.000
    38 H      -2.180786     1.459992     1.401187 H          1 UNL1 0.000
    39 H      -4.625115     1.467177     1.261335 H          1 UNL1 0.000
    40 H       0.080497     0.541480    -1.517226 H          1 UNL1 0.000
    41 H      -0.067924     0.567269     1.568057 H          1 UNL1 0.000
    42 C       1.810603     0.525158     0.496519 C          1 UNL1 0.000
    43 C       2.549067     1.710338     0.443172 C          1 UNL1 0.000
    44 C       3.945348     1.667947     0.393363 C          1 UNL1 0.000
    45 C       4.617984     0.440295     0.389814 C          1 UNL1 0.000
    46 C       3.873060    -0.744583     0.436413 C          1 UNL1 0.000
    47 C       2.477636    -0.702722     0.487200 C          1 UNL1 0.000
    48 C       6.116502     0.380503     0.359255 C          1 UNL1 0.000
    49 H       2.043685     2.673142     0.445945 H          1 UNL1 0.000
    50 H       4.502198     2.601569     0.360390 H          1 UNL1 0.000
    51 H       4.376380    -1.708789     0.437174 H          1 UNL1 0.000
    52 H       1.915883    -1.632996     0.524673 H          1 UNL1 0.000
    53 H       6.454259    -0.238689    -0.478037 H          1 UNL1 0.000
    54 H       6.494019    -0.043038     1.295522 H          1 UNL1 0.000
    55 H       6.555955     1.375768     0.236111 H          1 UNL1 0.000
@<TRIPOS>BOND
     1      1      2   2
     2      2      3   1
     3      3      4   2
     4      4      5   1
     5      5      6   2
     6      6      1   1
     7      4      7   1
     8      7      8   1
     9      8      9   2
    10      9     10   1
    11     10     11   2
    12     11     12   1
    13     12     13   2
    14     13      8   1
    15     14     15   1
    16      1     14   1
    17     16     17   2
    18     17     18   1
    19     18     19   2
    20     19     20   1
    21     20     21   2
    22     21     16   1
    23     19     22   1
    24     22     23   2
    25      7     16   1
    26      2     24   1
    27      3     25   1
    28      5     26   1
    29      6     27   1
    30      9     28   1
    31     10     29   1
    32     11     30   1
    33     12     31   1
    34     13     32   1
    35     15     33   1
    36     15     34   1
    37     15     35   1
    38     17     36   1
    39     18     37   1
    40     20     38   1
    41     21     39   1
    42     22     40   1
    43     23     41   1
    44     42     43   2
    45     43     44   1
    46     44     45   2
    47     45     46   1
    48     46     47   2
    49     47     42   1
    50     45     48   1
    51     43     49   1
    52     44     50   1
    53     46     51   1
    54     47     52   1
    55     48     53   1
    56     48     54   1
    57     48     55   1
    58     23     42   1
