# Produced with molli package
@<TRIPOS>MOLECULE
E_7_P
56 59 0 0 0
SMALL
USER_CHARGES

@<TRIPOS>ATOM
     1 C      -7.967299     4.392211    -1.140328 C          1 UNL1 0.000
     2 C      -8.509276     3.267575    -1.759537 C          1 UNL1 0.000
     3 C      -7.885227     2.017990    -1.627067 C          1 UNL1 0.000
     4 C      -6.713290     1.863539    -0.868220 C          1 UNL1 0.000
     5 C      -6.179448     3.010874    -0.256691 C          1 UNL1 0.000
     6 C      -6.802569     4.255566    -0.386889 C          1 UNL1 0.000
     7 N      -6.063080     0.583442    -0.728523 N          1 UNL1 0.000
     8 C      -6.800783    -0.654943    -0.638646 C          1 UNL1 0.000
     9 C      -8.054543    -0.722405    -0.007221 C          1 UNL1 0.000
    10 C      -8.755688    -1.929823     0.079787 C          1 UNL1 0.000
    11 C      -8.212841    -3.095054    -0.455843 C          1 UNL1 0.000
    12 C      -6.968426    -3.055924    -1.076740 C          1 UNL1 0.000
    13 C      -6.269959    -1.848678    -1.165487 C          1 UNL1 0.000
    14 O      -8.470757     5.662135    -1.186759 O          1 UNL1 0.000
    15 C      -9.572585     5.884586    -2.056840 C          1 UNL1 0.000
    16 C      -4.626781     0.540984    -0.660285 C          1 UNL1 0.000
    17 C      -3.848619     1.022689    -1.723003 C          1 UNL1 0.000
    18 C      -2.453855     0.952732    -1.668476 C          1 UNL1 0.000
    19 C      -1.813271     0.433015    -0.537945 C          1 UNL1 0.000
    20 C      -2.587332    -0.040037     0.528411 C          1 UNL1 0.000
    21 C      -3.982410     0.006468     0.465045 C          1 UNL1 0.000
    22 C      -0.351060     0.332230    -0.528722 C          1 UNL1 0.000
    23 C       0.407960     0.715849     0.509535 C          1 UNL1 0.000
    24 H      -9.414930     3.322816    -2.353924 H          1 UNL1 0.000
    25 H      -8.318110     1.164143    -2.143267 H          1 UNL1 0.000
    26 H      -5.278070     2.945549     0.347834 H          1 UNL1 0.000
    27 H      -6.371614     5.124540     0.104200 H          1 UNL1 0.000
    28 H      -8.489885     0.164628     0.446096 H          1 UNL1 0.000
    29 H      -9.723331    -1.958853     0.573788 H          1 UNL1 0.000
    30 H      -8.756569    -4.033442    -0.385568 H          1 UNL1 0.000
    31 H      -6.537256    -3.961879    -1.494664 H          1 UNL1 0.000
    32 H      -5.305601    -1.846484    -1.668386 H          1 UNL1 0.000
    33 H      -9.317871     5.629956    -3.090997 H          1 UNL1 0.000
    34 H      -9.811196     6.952182    -2.026343 H          1 UNL1 0.000
    35 H     -10.457623     5.335481    -1.719779 H          1 UNL1 0.000
    36 H      -4.331408     1.426927    -2.609341 H          1 UNL1 0.000
    37 H      -1.873214     1.310865    -2.515539 H          1 UNL1 0.000
    38 H      -2.114345    -0.464095     1.410814 H          1 UNL1 0.000
    39 H      -4.570391    -0.364497     1.301011 H          1 UNL1 0.000
    40 H       0.102237    -0.060905    -1.436008 H          1 UNL1 0.000
    41 H      -0.021167     1.157397     1.404506 H          1 UNL1 0.000
    42 C       1.866459     0.589491     0.481978 C          1 UNL1 0.000
    43 C       2.663888     1.731825     0.616544 C          1 UNL1 0.000
    44 C       4.057013     1.625033     0.593731 C          1 UNL1 0.000
    45 C       4.651851     0.371353     0.460091 C          1 UNL1 0.000
    46 C       3.868522    -0.769605     0.309355 C          1 UNL1 0.000
    47 C       2.476952    -0.662529     0.331470 C          1 UNL1 0.000
    48 O       6.010374     0.223639     0.396721 O          1 UNL1 0.000
    49 C       6.620415     0.545932     1.645908 C          1 UNL1 0.000
    50 H       2.206125     2.713103     0.717618 H          1 UNL1 0.000
    51 H       4.666393     2.520945     0.661205 H          1 UNL1 0.000
    52 H       4.339128    -1.739974     0.181442 H          1 UNL1 0.000
    53 H       1.873277    -1.561361     0.230487 H          1 UNL1 0.000
    54 H       7.678699     0.276042     1.579562 H          1 UNL1 0.000
    55 H       6.175222    -0.031022     2.464547 H          1 UNL1 0.000
    56 H       6.559847     1.618740     1.855046 H          1 UNL1 0.000
@<TRIPOS>BOND
     1      1      2   2
     2      2      3   1
     3      3      4   2
     4      4      5   1
     5      5      6   2
     6      6      1   1
     7      4      7   1
     8      7      8   1
     9      8      9   2
    10      9     10   1
    11     10     11   2
    12     11     12   1
    13     12     13   2
    14     13      8   1
    15     14     15   1
    16      1     14   1
    17     16     17   2
    18     17     18   1
    19     18     19   2
    20     19     20   1
    21     20     21   2
    22     21     16   1
    23     19     22   1
    24     22     23   2
    25      7     16   1
    26      2     24   1
    27      3     25   1
    28      5     26   1
    29      6     27   1
    30      9     28   1
    31     10     29   1
    32     11     30   1
    33     12     31   1
    34     13     32   1
    35     15     33   1
    36     15     34   1
    37     15     35   1
    38     17     36   1
    39     18     37   1
    40     20     38   1
    41     21     39   1
    42     22     40   1
    43     23     41   1
    44     42     43   2
    45     43     44   1
    46     44     45   2
    47     45     46   1
    48     46     47   2
    49     47     42   1
    50     48     49   1
    51     45     48   1
    52     43     50   1
    53     44     51   1
    54     46     52   1
    55     47     53   1
    56     49     54   1
    57     49     55   1
    58     49     56   1
    59     23     42   1
