# Produced with molli package
@<TRIPOS>MOLECULE
E_7_K
54 57 0 0 0
SMALL
USER_CHARGES

@<TRIPOS>ATOM
     1 C      -8.107734     4.359314    -1.043346 C          1 UNL1 0.000
     2 C      -8.692496     3.236547    -1.625154 C          1 UNL1 0.000
     3 C      -8.056859     1.987357    -1.544786 C          1 UNL1 0.000
     4 C      -6.837661     1.828598    -0.864673 C          1 UNL1 0.000
     5 C      -6.264173     2.980591    -0.293957 C          1 UNL1 0.000
     6 C      -6.897142     4.224330    -0.370865 C          1 UNL1 0.000
     7 N      -6.176646     0.547577    -0.765734 N          1 UNL1 0.000
     8 C      -6.880919    -0.709581    -0.642880 C          1 UNL1 0.000
     9 C      -8.161005    -0.796078    -0.068705 C          1 UNL1 0.000
    10 C      -8.826748    -2.022611     0.043583 C          1 UNL1 0.000
    11 C      -8.217743    -3.193939    -0.397282 C          1 UNL1 0.000
    12 C      -6.941919    -3.141340    -0.947120 C          1 UNL1 0.000
    13 C      -6.282875    -1.913963    -1.067563 C          1 UNL1 0.000
    14 O      -8.637124     5.619352    -1.036391 O          1 UNL1 0.000
    15 C      -9.479883     5.938691    -2.136699 C          1 UNL1 0.000
    16 C      -4.741486     0.533165    -0.703134 C          1 UNL1 0.000
    17 C      -3.976888     0.781395    -1.848645 C          1 UNL1 0.000
    18 C      -2.579764     0.777275    -1.778681 C          1 UNL1 0.000
    19 C      -1.917434     0.552130    -0.561476 C          1 UNL1 0.000
    20 C      -2.693032     0.311244     0.581577 C          1 UNL1 0.000
    21 C      -4.089041     0.287592     0.510524 C          1 UNL1 0.000
    22 C      -0.442599     0.587873    -0.548626 C          1 UNL1 0.000
    23 C       0.337323     0.376219     0.523447 C          1 UNL1 0.000
    24 H      -9.648090     3.295182    -2.135306 H          1 UNL1 0.000
    25 H      -8.526111     1.136992    -2.033794 H          1 UNL1 0.000
    26 H      -5.320250     2.925300     0.241830 H          1 UNL1 0.000
    27 H      -6.435081     5.092343     0.092393 H          1 UNL1 0.000
    28 H      -8.652302     0.090193     0.323936 H          1 UNL1 0.000
    29 H      -9.819054    -2.060609     0.485540 H          1 UNL1 0.000
    30 H      -8.732676    -4.146534    -0.305403 H          1 UNL1 0.000
    31 H      -6.454163    -4.052119    -1.284753 H          1 UNL1 0.000
    32 H      -5.290624    -1.911573    -1.512198 H          1 UNL1 0.000
    33 H      -8.986465     5.720479    -3.090035 H          1 UNL1 0.000
    34 H      -9.677675     7.014458    -2.101425 H          1 UNL1 0.000
    35 H     -10.441325     5.421799    -2.062016 H          1 UNL1 0.000
    36 H      -4.471037     0.962148    -2.799903 H          1 UNL1 0.000
    37 H      -2.016103     0.956724    -2.691790 H          1 UNL1 0.000
    38 H      -2.236085     0.142789     1.551669 H          1 UNL1 0.000
    39 H      -4.672460     0.106787     1.410052 H          1 UNL1 0.000
    40 H       0.027106     0.796477    -1.508908 H          1 UNL1 0.000
    41 H      -0.059850     0.142545     1.505251 H          1 UNL1 0.000
    42 C       1.798595     0.416413     0.444567 C          1 UNL1 0.000
    43 C       2.525532    -0.759739     0.666591 C          1 UNL1 0.000
    44 C       3.921728    -0.744228     0.633037 C          1 UNL1 0.000
    45 C       4.589750     0.460400     0.379620 C          1 UNL1 0.000
    46 C       3.872861     1.642642     0.153625 C          1 UNL1 0.000
    47 C       2.475840     1.615426     0.187222 C          1 UNL1 0.000
    48 N       6.055597     0.484370     0.359411 N          1 UNL1 0.000
    49 O       6.607886     1.481300    -0.127656 O          1 UNL1 0.000
    50 O       6.653370    -0.492494     0.831915 O          1 UNL1 0.000
    51 H       2.006477    -1.695977     0.864529 H          1 UNL1 0.000
    52 H       4.467617    -1.669335     0.805888 H          1 UNL1 0.000
    53 H       4.382137     2.584962    -0.037946 H          1 UNL1 0.000
    54 H       1.919303     2.537045     0.026063 H          1 UNL1 0.000
@<TRIPOS>BOND
     1      1      2   2
     2      2      3   1
     3      3      4   2
     4      4      5   1
     5      5      6   2
     6      6      1   1
     7      4      7   1
     8      7      8   1
     9      8      9   2
    10      9     10   1
    11     10     11   2
    12     11     12   1
    13     12     13   2
    14     13      8   1
    15     14     15   1
    16      1     14   1
    17     16     17   2
    18     17     18   1
    19     18     19   2
    20     19     20   1
    21     20     21   2
    22     21     16   1
    23     19     22   1
    24     22     23   2
    25      7     16   1
    26      2     24   1
    27      3     25   1
    28      5     26   1
    29      6     27   1
    30      9     28   1
    31     10     29   1
    32     11     30   1
    33     12     31   1
    34     13     32   1
    35     15     33   1
    36     15     34   1
    37     15     35   1
    38     17     36   1
    39     18     37   1
    40     20     38   1
    41     21     39   1
    42     22     40   1
    43     23     41   1
    44     42     43   2
    45     43     44   1
    46     44     45   2
    47     45     46   1
    48     46     47   2
    49     47     42   1
    50     48     49   2
    51     48     50   1
    52     45     48   1
    53     43     51   1
    54     44     52   1
    55     46     53   1
    56     47     54   1
    57     23     42   1
