# Produced with molli package
@<TRIPOS>MOLECULE
E_7_O
51 54 0 0 0
SMALL
USER_CHARGES

@<TRIPOS>ATOM
     1 C      -8.161615     4.347286    -0.994733 C          1 UNL1 0.000
     2 C      -8.718567     3.229687    -1.613260 C          1 UNL1 0.000
     3 C      -8.068776     1.988525    -1.542627 C          1 UNL1 0.000
     4 C      -6.860415     1.836249    -0.841793 C          1 UNL1 0.000
     5 C      -6.319800     2.979566    -0.224651 C          1 UNL1 0.000
     6 C      -6.969895     4.214876    -0.288463 C          1 UNL1 0.000
     7 N      -6.179430     0.565396    -0.766713 N          1 UNL1 0.000
     8 C      -6.875571    -0.696451    -0.685504 C          1 UNL1 0.000
     9 C      -8.122970    -0.813857    -0.048332 C          1 UNL1 0.000
    10 C      -8.786115    -2.043638     0.024883 C          1 UNL1 0.000
    11 C      -8.209635    -3.183717    -0.528542 C          1 UNL1 0.000
    12 C      -6.968147    -3.097178    -1.150319 C          1 UNL1 0.000
    13 C      -6.307666    -1.867318    -1.224589 C          1 UNL1 0.000
    14 O      -8.713223     5.598116    -0.982782 O          1 UNL1 0.000
    15 C      -9.443574     5.946438    -2.153392 C          1 UNL1 0.000
    16 C      -4.743799     0.565541    -0.710242 C          1 UNL1 0.000
    17 C      -3.989676     0.963098    -1.821454 C          1 UNL1 0.000
    18 C      -2.594148     0.998265    -1.751323 C          1 UNL1 0.000
    19 C      -1.926350     0.653583    -0.568055 C          1 UNL1 0.000
    20 C      -2.685615     0.269590     0.545419 C          1 UNL1 0.000
    21 C      -4.080324     0.206411     0.470233 C          1 UNL1 0.000
    22 C      -0.461309     0.783704    -0.524786 C          1 UNL1 0.000
    23 C       0.353957     0.084363     0.280427 C          1 UNL1 0.000
    24 H      -9.662452     3.288774    -2.144695 H          1 UNL1 0.000
    25 H      -8.513675     1.140021    -2.057029 H          1 UNL1 0.000
    26 H      -5.389507     2.920147     0.334702 H          1 UNL1 0.000
    27 H      -6.534881     5.078256     0.208166 H          1 UNL1 0.000
    28 H      -8.584496     0.051173     0.421232 H          1 UNL1 0.000
    29 H      -9.750467    -2.109127     0.521858 H          1 UNL1 0.000
    30 H      -8.724141    -4.139214    -0.470439 H          1 UNL1 0.000
    31 H      -6.509642    -3.983649    -1.580727 H          1 UNL1 0.000
    32 H      -5.344195    -1.830330    -1.727566 H          1 UNL1 0.000
    33 H      -8.864998     5.739975    -3.060588 H          1 UNL1 0.000
    34 H      -9.634277     7.023478    -2.117094 H          1 UNL1 0.000
    35 H     -10.411857     5.437833    -2.179643 H          1 UNL1 0.000
    36 H      -4.490608     1.239087    -2.745783 H          1 UNL1 0.000
    37 H      -2.032814     1.303503    -2.632011 H          1 UNL1 0.000
    38 H      -2.209154     0.038470     1.493967 H          1 UNL1 0.000
    39 H      -4.655099    -0.080329     1.347315 H          1 UNL1 0.000
    40 H      -0.036675     1.507643    -1.219841 H          1 UNL1 0.000
    41 H      -0.044699    -0.658978     0.962941 H          1 UNL1 0.000
    42 C       1.816456     0.248286     0.303352 C          1 UNL1 0.000
    43 N       2.354061     1.196881    -0.499994 N          1 UNL1 0.000
    44 C       3.695979     1.349405    -0.471524 C          1 UNL1 0.000
    45 C       4.540778     0.595219     0.323697 C          1 UNL1 0.000
    46 C       3.975760    -0.374215     1.142182 C          1 UNL1 0.000
    47 C       2.593882    -0.551838     1.135562 C          1 UNL1 0.000
    48 H       4.086087     2.121607    -1.128272 H          1 UNL1 0.000
    49 H       5.612063     0.759894     0.305318 H          1 UNL1 0.000
    50 H       4.603809    -0.987816     1.781443 H          1 UNL1 0.000
    51 H       2.142228    -1.305485     1.771879 H          1 UNL1 0.000
@<TRIPOS>BOND
     1      1      2   2
     2      2      3   1
     3      3      4   2
     4      4      5   1
     5      5      6   2
     6      6      1   1
     7      4      7   1
     8      7      8   1
     9      8      9   2
    10      9     10   1
    11     10     11   2
    12     11     12   1
    13     12     13   2
    14     13      8   1
    15     14     15   1
    16      1     14   1
    17     16     17   2
    18     17     18   1
    19     18     19   2
    20     19     20   1
    21     20     21   2
    22     21     16   1
    23     19     22   1
    24     22     23   2
    25      7     16   1
    26      2     24   1
    27      3     25   1
    28      5     26   1
    29      6     27   1
    30      9     28   1
    31     10     29   1
    32     11     30   1
    33     12     31   1
    34     13     32   1
    35     15     33   1
    36     15     34   1
    37     15     35   1
    38     17     36   1
    39     18     37   1
    40     20     38   1
    41     21     39   1
    42     22     40   1
    43     23     41   1
    44     42     43   2
    45     43     44   1
    46     44     45   2
    47     45     46   1
    48     46     47   2
    49     47     42   1
    50     44     48   1
    51     45     49   1
    52     46     50   1
    53     47     51   1
    54     23     42   1
