# Produced with molli package
@<TRIPOS>MOLECULE
E_7_R
53 56 0 0 0
SMALL
USER_CHARGES

@<TRIPOS>ATOM
     1 C      -7.986012     4.356514    -1.015031 C          1 UNL1 0.000
     2 C      -8.580963     3.250147    -1.617474 C          1 UNL1 0.000
     3 C      -7.944557     1.998550    -1.582491 C          1 UNL1 0.000
     4 C      -6.716273     1.819317    -0.924366 C          1 UNL1 0.000
     5 C      -6.130926     2.958084    -0.337488 C          1 UNL1 0.000
     6 C      -6.762789     4.204181    -0.371027 C          1 UNL1 0.000
     7 N      -6.055400     0.534591    -0.861869 N          1 UNL1 0.000
     8 C      -6.753672    -0.729308    -0.765765 C          1 UNL1 0.000
     9 C      -8.045644    -0.834381    -0.222294 C          1 UNL1 0.000
    10 C      -8.703452    -2.068012    -0.138771 C          1 UNL1 0.000
    11 C      -8.073297    -3.230153    -0.573625 C          1 UNL1 0.000
    12 C      -6.784650    -3.161061    -1.089802 C          1 UNL1 0.000
    13 C      -6.135374    -1.926055    -1.185273 C          1 UNL1 0.000
    14 O      -8.520477     5.612924    -0.956038 O          1 UNL1 0.000
    15 C      -9.346984     5.979127    -2.053957 C          1 UNL1 0.000
    16 C      -4.619371     0.523638    -0.798047 C          1 UNL1 0.000
    17 C      -3.855468     0.795470    -1.939467 C          1 UNL1 0.000
    18 C      -2.459206     0.807981    -1.866063 C          1 UNL1 0.000
    19 C      -1.801196     0.568052    -0.650792 C          1 UNL1 0.000
    20 C      -2.573674     0.315730     0.491627 C          1 UNL1 0.000
    21 C      -3.968119     0.272620     0.416192 C          1 UNL1 0.000
    22 C      -0.331428     0.653992    -0.615902 C          1 UNL1 0.000
    23 C       0.452495     0.074175     0.308906 C          1 UNL1 0.000
    24 H      -9.546440     3.323023    -2.106724 H          1 UNL1 0.000
    25 H      -8.422846     1.163138    -2.087995 H          1 UNL1 0.000
    26 H      -5.176673     2.891325     0.178319 H          1 UNL1 0.000
    27 H      -6.290187     5.059574     0.104867 H          1 UNL1 0.000
    28 H      -8.555466     0.041588     0.169275 H          1 UNL1 0.000
    29 H      -9.706588    -2.118551     0.276764 H          1 UNL1 0.000
    30 H      -8.581609    -4.188068    -0.502871 H          1 UNL1 0.000
    31 H      -6.278979    -4.064423    -1.420965 H          1 UNL1 0.000
    32 H      -5.132355    -1.912769    -1.605059 H          1 UNL1 0.000
    33 H      -8.831732     5.818244    -3.007026 H          1 UNL1 0.000
    34 H      -9.560148     7.048988    -1.965119 H          1 UNL1 0.000
    35 H     -10.302929     5.447970    -2.026816 H          1 UNL1 0.000
    36 H      -4.349744     0.988084    -2.888318 H          1 UNL1 0.000
    37 H      -1.890695     1.010972    -2.771301 H          1 UNL1 0.000
    38 H      -2.109943     0.168723     1.462589 H          1 UNL1 0.000
    39 H      -4.552823     0.082655     1.312891 H          1 UNL1 0.000
    40 H       0.123942     1.228003    -1.421819 H          1 UNL1 0.000
    41 H       0.019559    -0.523823     1.103556 H          1 UNL1 0.000
    42 C       1.918337     0.177494     0.326943 C          1 UNL1 0.000
    43 N       2.504121     1.015531    -0.564910 N          1 UNL1 0.000
    44 C       3.856734     1.114877    -0.542869 C          1 UNL1 0.000
    45 C       4.648470     0.404755     0.342634 C          1 UNL1 0.000
    46 C       4.044175    -0.454575     1.258698 C          1 UNL1 0.000
    47 C       2.653892    -0.567700     1.248445 C          1 UNL1 0.000
    48 N       6.090189     0.563590     0.308520 N          1 UNL1 0.000
    49 O       6.598577     0.962296    -0.748266 O          1 UNL1 0.000
    50 O       6.719574     0.286257     1.338426 O          1 UNL1 0.000
    51 H       4.272113     1.804440    -1.273656 H          1 UNL1 0.000
    52 H       4.629961    -1.033939     1.968018 H          1 UNL1 0.000
    53 H       2.160564    -1.234035     1.949881 H          1 UNL1 0.000
@<TRIPOS>BOND
     1      1      2   2
     2      2      3   1
     3      3      4   2
     4      4      5   1
     5      5      6   2
     6      6      1   1
     7      4      7   1
     8      7      8   1
     9      8      9   2
    10      9     10   1
    11     10     11   2
    12     11     12   1
    13     12     13   2
    14     13      8   1
    15     14     15   1
    16      1     14   1
    17     16     17   2
    18     17     18   1
    19     18     19   2
    20     19     20   1
    21     20     21   2
    22     21     16   1
    23     19     22   1
    24     22     23   2
    25      7     16   1
    26      2     24   1
    27      3     25   1
    28      5     26   1
    29      6     27   1
    30      9     28   1
    31     10     29   1
    32     11     30   1
    33     12     31   1
    34     13     32   1
    35     15     33   1
    36     15     34   1
    37     15     35   1
    38     17     36   1
    39     18     37   1
    40     20     38   1
    41     21     39   1
    42     22     40   1
    43     23     41   1
    44     42     43   2
    45     43     44   1
    46     44     45   2
    47     45     46   1
    48     46     47   2
    49     47     42   1
    50     48     49   2
    51     48     50   1
    52     45     48   1
    53     44     51   1
    54     46     52   1
    55     47     53   1
    56     23     42   1
