# Produced with molli package
@<TRIPOS>MOLECULE
E_7_S
57 60 0 0 0
SMALL
USER_CHARGES

@<TRIPOS>ATOM
     1 C      -8.103534     4.335490    -0.983367 C          1 UNL1 0.000
     2 C      -8.704356     3.216684    -1.554147 C          1 UNL1 0.000
     3 C      -8.043491     1.978594    -1.539604 C          1 UNL1 0.000
     4 C      -6.788496     1.822593    -0.925024 C          1 UNL1 0.000
     5 C      -6.196136     2.978037    -0.378084 C          1 UNL1 0.000
     6 C      -6.851136     4.213258    -0.393123 C          1 UNL1 0.000
     7 N      -6.117689     0.541790    -0.861513 N          1 UNL1 0.000
     8 C      -6.810616    -0.725452    -0.758420 C          1 UNL1 0.000
     9 C      -8.090357    -0.836585    -0.186530 C          1 UNL1 0.000
    10 C      -8.751191    -2.068787    -0.109173 C          1 UNL1 0.000
    11 C      -8.134138    -3.225293    -0.575705 C          1 UNL1 0.000
    12 C      -6.854055    -3.152125    -1.112708 C          1 UNL1 0.000
    13 C      -6.201829    -1.917822    -1.201708 C          1 UNL1 0.000
    14 O      -8.688071     5.567782    -0.893809 O          1 UNL1 0.000
    15 C      -9.346863     5.989934    -2.083015 C          1 UNL1 0.000
    16 C      -4.682249     0.533701    -0.793586 C          1 UNL1 0.000
    17 C      -3.913263     0.710572    -1.949396 C          1 UNL1 0.000
    18 C      -2.515769     0.714820    -1.873473 C          1 UNL1 0.000
    19 C      -1.857899     0.568630    -0.641874 C          1 UNL1 0.000
    20 C      -2.638690     0.404059     0.511502 C          1 UNL1 0.000
    21 C      -4.034356     0.368843     0.436173 C          1 UNL1 0.000
    22 C      -0.382817     0.615977    -0.620583 C          1 UNL1 0.000
    23 C       0.388374     0.375841     0.451587 C          1 UNL1 0.000
    24 H      -9.695573     3.271734    -1.991816 H          1 UNL1 0.000
    25 H      -8.529820     1.132248    -2.018449 H          1 UNL1 0.000
    26 H      -5.220570     2.933850     0.098265 H          1 UNL1 0.000
    27 H      -6.377326     5.080359     0.059300 H          1 UNL1 0.000
    28 H      -8.588745     0.034525     0.230169 H          1 UNL1 0.000
    29 H      -9.746237    -2.122263     0.325052 H          1 UNL1 0.000
    30 H      -8.645222    -4.182242    -0.512208 H          1 UNL1 0.000
    31 H      -6.357768    -4.052206    -1.466206 H          1 UNL1 0.000
    32 H      -5.206167    -1.902242    -1.637726 H          1 UNL1 0.000
    33 H      -8.676572     5.927919    -2.947163 H          1 UNL1 0.000
    34 H      -9.627893     7.039359    -1.950204 H          1 UNL1 0.000
    35 H     -10.265425     5.422344    -2.257483 H          1 UNL1 0.000
    36 H      -4.404351     0.830567    -2.911704 H          1 UNL1 0.000
    37 H      -1.947849     0.837562    -2.793288 H          1 UNL1 0.000
    38 H      -2.185210     0.309086     1.493295 H          1 UNL1 0.000
    39 H      -4.621287     0.245537     1.343098 H          1 UNL1 0.000
    40 H       0.093635     0.857274    -1.569708 H          1 UNL1 0.000
    41 H      -0.015687     0.111180     1.422661 H          1 UNL1 0.000
    42 C       1.849207     0.426663     0.393835 C          1 UNL1 0.000
    43 C       2.526510     1.647296     0.374381 C          1 UNL1 0.000
    44 C       3.924869     1.672306     0.389730 C          1 UNL1 0.000
    45 C       4.663913     0.479268     0.414814 C          1 UNL1 0.000
    46 C       3.979943    -0.741264     0.403273 C          1 UNL1 0.000
    47 C       2.579993    -0.764727     0.400564 C          1 UNL1 0.000
    48 C       6.156238     0.580454     0.466272 C          1 UNL1 0.000
    49 C       7.005812    -0.665107     0.425882 C          1 UNL1 0.000
    50 O       6.685609     1.688678     0.510521 O          1 UNL1 0.000
    51 H       1.976079     2.585643     0.368394 H          1 UNL1 0.000
    52 H       4.435893     2.634147     0.391636 H          1 UNL1 0.000
    53 H       4.497705    -1.694298     0.407770 H          1 UNL1 0.000
    54 H       2.062054    -1.721943     0.410855 H          1 UNL1 0.000
    55 H       7.268075    -0.889989    -0.610890 H          1 UNL1 0.000
    56 H       6.523103    -1.525789     0.888258 H          1 UNL1 0.000
    57 H       7.921387    -0.480548     0.997463 H          1 UNL1 0.000
@<TRIPOS>BOND
     1      1      2   2
     2      2      3   1
     3      3      4   2
     4      4      5   1
     5      5      6   2
     6      6      1   1
     7      4      7   1
     8      7      8   1
     9      8      9   2
    10      9     10   1
    11     10     11   2
    12     11     12   1
    13     12     13   2
    14     13      8   1
    15     14     15   1
    16      1     14   1
    17     16     17   2
    18     17     18   1
    19     18     19   2
    20     19     20   1
    21     20     21   2
    22     21     16   1
    23     19     22   1
    24     22     23   2
    25      7     16   1
    26      2     24   1
    27      3     25   1
    28      5     26   1
    29      6     27   1
    30      9     28   1
    31     10     29   1
    32     11     30   1
    33     12     31   1
    34     13     32   1
    35     15     33   1
    36     15     34   1
    37     15     35   1
    38     17     36   1
    39     18     37   1
    40     20     38   1
    41     21     39   1
    42     22     40   1
    43     23     41   1
    44     42     43   2
    45     43     44   1
    46     44     45   2
    47     45     46   1
    48     46     47   2
    49     47     42   1
    50     45     48   1
    51     48     49   1
    52     48     50   2
    53     43     51   1
    54     44     52   1
    55     46     53   1
    56     47     54   1
    57     49     55   1
    58     49     56   1
    59     49     57   1
    60     23     42   1
