# Produced with molli package
@<TRIPOS>MOLECULE
E_7_N
49 52 0 0 0
SMALL
USER_CHARGES

@<TRIPOS>ATOM
     1 C      -8.166361     4.339273    -1.179366 C          1 UNL1 0.000
     2 C      -8.676294     3.201665    -1.803244 C          1 UNL1 0.000
     3 C      -8.022242     1.969125    -1.664956 C          1 UNL1 0.000
     4 C      -6.852127     1.850399    -0.897213 C          1 UNL1 0.000
     5 C      -6.365584     3.006861    -0.261795 C          1 UNL1 0.000
     6 C      -7.021965     4.232933    -0.392885 C          1 UNL1 0.000
     7 N      -6.151911     0.594327    -0.775122 N          1 UNL1 0.000
     8 C      -6.851233    -0.660889    -0.648594 C          1 UNL1 0.000
     9 C      -8.072654    -0.754701     0.040965 C          1 UNL1 0.000
    10 C      -8.741354    -1.976908     0.161979 C          1 UNL1 0.000
    11 C      -8.199547    -3.129042    -0.402062 C          1 UNL1 0.000
    12 C      -6.987920    -3.061896    -1.083779 C          1 UNL1 0.000
    13 C      -6.319359    -1.840235    -1.203001 C          1 UNL1 0.000
    14 O      -8.713673     5.590555    -1.241441 O          1 UNL1 0.000
    15 C      -9.462781     5.874466    -2.417544 C          1 UNL1 0.000
    16 C      -4.713601     0.611312    -0.733465 C          1 UNL1 0.000
    17 C      -3.978666     1.229651    -1.755277 C          1 UNL1 0.000
    18 C      -2.584677     1.304533    -1.685011 C          1 UNL1 0.000
    19 C      -1.894512     0.770035    -0.590266 C          1 UNL1 0.000
    20 C      -2.626977     0.150868     0.430133 C          1 UNL1 0.000
    21 C      -4.021049     0.057234     0.352173 C          1 UNL1 0.000
    22 C      -0.438905     0.966682    -0.514041 C          1 UNL1 0.000
    23 C       0.423333     0.122931     0.080548 C          1 UNL1 0.000
    24 H      -9.583843     3.238725    -2.396381 H          1 UNL1 0.000
    25 H      -8.426099     1.102215    -2.182758 H          1 UNL1 0.000
    26 H      -5.472967     2.961192     0.357605 H          1 UNL1 0.000
    27 H      -6.627740     5.111024     0.112154 H          1 UNL1 0.000
    28 H      -8.505670     0.124114     0.512592 H          1 UNL1 0.000
    29 H      -9.682803    -2.027082     0.702774 H          1 UNL1 0.000
    30 H      -8.719429    -4.078849    -0.307861 H          1 UNL1 0.000
    31 H      -6.560637    -3.957825    -1.526551 H          1 UNL1 0.000
    32 H      -5.381804    -1.812944    -1.753429 H          1 UNL1 0.000
    33 H      -8.902521     5.611834    -3.321857 H          1 UNL1 0.000
    34 H      -9.647261     6.952735    -2.441903 H          1 UNL1 0.000
    35 H     -10.433587     5.369979    -2.394971 H          1 UNL1 0.000
    36 H      -4.494583     1.657064    -2.612380 H          1 UNL1 0.000
    37 H      -2.046772     1.794270    -2.494154 H          1 UNL1 0.000
    38 H      -2.132288    -0.239488     1.316135 H          1 UNL1 0.000
    39 H      -4.572080    -0.405733     1.167933 H          1 UNL1 0.000
    40 H      -0.076172     1.871511    -0.996432 H          1 UNL1 0.000
    41 H       0.031527    -0.795405     0.515686 H          1 UNL1 0.000
    42 C       1.843264     0.300302     0.187858 C          1 UNL1 0.000
    43 C       2.521501     1.473296    -0.073062 C          1 UNL1 0.000
    44 S       4.211335     1.321399     0.170160 S          1 UNL1 0.000
    45 C       4.049498    -0.314355     0.636637 C          1 UNL1 0.000
    46 C       2.736681    -0.732902     0.608096 C          1 UNL1 0.000
    47 H       2.125982     2.427850    -0.389261 H          1 UNL1 0.000
    48 H       4.922952    -0.890212     0.910803 H          1 UNL1 0.000
    49 H       2.438243    -1.740402     0.873358 H          1 UNL1 0.000
@<TRIPOS>BOND
     1      1      2   2
     2      2      3   1
     3      3      4   2
     4      4      5   1
     5      5      6   2
     6      6      1   1
     7      4      7   1
     8      7      8   1
     9      8      9   2
    10      9     10   1
    11     10     11   2
    12     11     12   1
    13     12     13   2
    14     13      8   1
    15     14     15   1
    16      1     14   1
    17     16     17   2
    18     17     18   1
    19     18     19   2
    20     19     20   1
    21     20     21   2
    22     21     16   1
    23     19     22   1
    24     22     23   2
    25      7     16   1
    26      2     24   1
    27      3     25   1
    28      5     26   1
    29      6     27   1
    30      9     28   1
    31     10     29   1
    32     11     30   1
    33     12     31   1
    34     13     32   1
    35     15     33   1
    36     15     34   1
    37     15     35   1
    38     17     36   1
    39     18     37   1
    40     20     38   1
    41     21     39   1
    42     22     40   1
    43     23     41   1
    44     42     43   2
    45     43     44   1
    46     44     45   1
    47     45     46   2
    48     46     42   1
    49     43     47   1
    50     45     48   1
    51     46     49   1
    52     23     42   1
