# Produced with molli package
@<TRIPOS>MOLECULE
E_7_M
53 56 0 0 0
SMALL
USER_CHARGES

@<TRIPOS>ATOM
     1 C      -8.111888     4.379182    -0.743860 C          1 UNL1 0.000
     2 C      -8.768898     3.256516    -0.257185 C          1 UNL1 0.000
     3 C      -8.125715     2.011585    -0.264641 C          1 UNL1 0.000
     4 C      -6.828410     1.856085    -0.785852 C          1 UNL1 0.000
     5 C      -6.168844     3.032673    -1.207428 C          1 UNL1 0.000
     6 C      -6.797338     4.282767    -1.179360 C          1 UNL1 0.000
     7 N      -6.163024     0.568119    -0.861204 N          1 UNL1 0.000
     8 C      -6.848539    -0.709759    -0.929235 C          1 UNL1 0.000
     9 C      -8.154449    -0.844008    -1.432691 C          1 UNL1 0.000
    10 C      -8.822547    -2.076099    -1.425099 C          1 UNL1 0.000
    11 C      -8.179749    -3.219730    -0.964033 C          1 UNL1 0.000
    12 C      -6.865183    -3.134373    -0.524029 C          1 UNL1 0.000
    13 C      -6.211539    -1.896989    -0.506583 C          1 UNL1 0.000
    14 O      -8.760665     5.582024    -0.709395 O          1 UNL1 0.000
    15 C      -9.108477     5.999543    -2.030579 C          1 UNL1 0.000
    16 C      -4.724862     0.559069    -0.805934 C          1 UNL1 0.000
    17 C      -3.964927     0.389923    -1.969560 C          1 UNL1 0.000
    18 C      -2.566033     0.394459    -1.906303 C          1 UNL1 0.000
    19 C      -1.896495     0.543350    -0.680826 C          1 UNL1 0.000
    20 C      -2.668720     0.697044     0.480062 C          1 UNL1 0.000
    21 C      -4.065998     0.718417     0.418718 C          1 UNL1 0.000
    22 C      -0.419408     0.521188    -0.675343 C          1 UNL1 0.000
    23 C       0.360441     0.700771     0.402822 C          1 UNL1 0.000
    24 H      -9.780601     3.344621     0.128175 H          1 UNL1 0.000
    25 H      -8.659096     1.168047     0.164010 H          1 UNL1 0.000
    26 H      -5.146557     2.996285    -1.575009 H          1 UNL1 0.000
    27 H      -6.253193     5.168002    -1.494354 H          1 UNL1 0.000
    28 H      -8.679988     0.008944    -1.852122 H          1 UNL1 0.000
    29 H      -9.846212    -2.138458    -1.785502 H          1 UNL1 0.000
    30 H      -8.696588    -4.175587    -0.958599 H          1 UNL1 0.000
    31 H      -6.343299    -4.025431    -0.184694 H          1 UNL1 0.000
    32 H      -5.189194    -1.880807    -0.137862 H          1 UNL1 0.000
    33 H      -8.218816     6.253066    -2.616828 H          1 UNL1 0.000
    34 H      -9.724085     6.900241    -1.946428 H          1 UNL1 0.000
    35 H      -9.699757     5.233356    -2.545314 H          1 UNL1 0.000
    36 H      -4.464151     0.273365    -2.928242 H          1 UNL1 0.000
    37 H      -2.006439     0.279936    -2.832350 H          1 UNL1 0.000
    38 H      -2.207556     0.800868     1.457305 H          1 UNL1 0.000
    39 H      -4.645218     0.837832     1.331136 H          1 UNL1 0.000
    40 H       0.050890     0.350372    -1.642710 H          1 UNL1 0.000
    41 H      -0.036566     0.890397     1.394137 H          1 UNL1 0.000
    42 C       1.821943     0.669426     0.331719 C          1 UNL1 0.000
    43 C       2.542486     1.868045     0.359269 C          1 UNL1 0.000
    44 C       3.940277     1.849944     0.356702 C          1 UNL1 0.000
    45 C       4.626022     0.631140     0.328279 C          1 UNL1 0.000
    46 C       3.906820    -0.568224     0.285671 C          1 UNL1 0.000
    47 C       2.508441    -0.548578     0.284699 C          1 UNL1 0.000
    48 C       6.059133     0.611745     0.356866 C          1 UNL1 0.000
    49 N       7.219802     0.597157     0.386848 N          1 UNL1 0.000
    50 H       2.019879     2.821965     0.392765 H          1 UNL1 0.000
    51 H       4.486023     2.791190     0.387847 H          1 UNL1 0.000
    52 H       4.427316    -1.524016     0.265152 H          1 UNL1 0.000
    53 H       1.959937    -1.488231     0.267296 H          1 UNL1 0.000
@<TRIPOS>BOND
     1      1      2   2
     2      2      3   1
     3      3      4   2
     4      4      5   1
     5      5      6   2
     6      6      1   1
     7      4      7   1
     8      7      8   1
     9      8      9   2
    10      9     10   1
    11     10     11   2
    12     11     12   1
    13     12     13   2
    14     13      8   1
    15     14     15   1
    16      1     14   1
    17     16     17   2
    18     17     18   1
    19     18     19   2
    20     19     20   1
    21     20     21   2
    22     21     16   1
    23     19     22   1
    24     22     23   2
    25      7     16   1
    26      2     24   1
    27      3     25   1
    28      5     26   1
    29      6     27   1
    30      9     28   1
    31     10     29   1
    32     11     30   1
    33     12     31   1
    34     13     32   1
    35     15     33   1
    36     15     34   1
    37     15     35   1
    38     17     36   1
    39     18     37   1
    40     20     38   1
    41     21     39   1
    42     22     40   1
    43     23     41   1
    44     42     43   2
    45     43     44   1
    46     44     45   2
    47     45     46   1
    48     46     47   2
    49     47     42   1
    50     48     49   3
    51     45     48   1
    52     43     50   1
    53     44     51   1
    54     46     52   1
    55     47     53   1
    56     23     42   1
