# Produced with molli package
@<TRIPOS>MOLECULE
E_7_Q
50 53 0 0 0
SMALL
USER_CHARGES

@<TRIPOS>ATOM
     1 C      -8.199620     4.221851    -0.516606 C          1 UNL1 0.000
     2 C      -8.734384     3.082233     0.074257 C          1 UNL1 0.000
     3 C      -8.045662     1.868258    -0.007923 C          1 UNL1 0.000
     4 C      -6.807730     1.779053    -0.670445 C          1 UNL1 0.000
     5 C      -6.265561     2.959965    -1.213009 C          1 UNL1 0.000
     6 C      -6.954089     4.174352    -1.135199 C          1 UNL1 0.000
     7 N      -6.109005     0.522183    -0.788922 N          1 UNL1 0.000
     8 C      -6.811573    -0.725992    -0.980083 C          1 UNL1 0.000
     9 C      -7.990446    -0.797627    -1.742260 C          1 UNL1 0.000
    10 C      -8.660105    -2.011957    -1.923196 C          1 UNL1 0.000
    11 C      -8.159174    -3.179068    -1.351958 C          1 UNL1 0.000
    12 C      -6.988082    -3.134889    -0.601586 C          1 UNL1 0.000
    13 C      -6.320960    -1.920729    -0.418908 C          1 UNL1 0.000
    14 O      -8.899930     5.391622    -0.407303 O          1 UNL1 0.000
    15 C      -9.370199     5.824217    -1.684364 C          1 UNL1 0.000
    16 C      -4.671736     0.506740    -0.738854 C          1 UNL1 0.000
    17 C      -3.928512    -0.045703    -1.790774 C          1 UNL1 0.000
    18 C      -2.533444    -0.100328    -1.724723 C          1 UNL1 0.000
    19 C      -1.847048     0.384633    -0.602713 C          1 UNL1 0.000
    20 C      -2.591076     0.936143     0.448621 C          1 UNL1 0.000
    21 C      -3.987347     1.011769     0.374975 C          1 UNL1 0.000
    22 C      -0.384392     0.216547    -0.555193 C          1 UNL1 0.000
    23 C       0.457268     0.930458     0.211973 C          1 UNL1 0.000
    24 H      -9.687722     3.133694     0.591993 H          1 UNL1 0.000
    25 H      -8.479014     0.990443     0.465369 H          1 UNL1 0.000
    26 H      -5.305218     2.940535    -1.722783 H          1 UNL1 0.000
    27 H      -6.509052     5.072259    -1.552788 H          1 UNL1 0.000
    28 H      -8.389775     0.092850    -2.221261 H          1 UNL1 0.000
    29 H      -9.570671    -2.044405    -2.515644 H          1 UNL1 0.000
    30 H      -8.679409    -4.122726    -1.493409 H          1 UNL1 0.000
    31 H      -6.591558    -4.042292    -0.153693 H          1 UNL1 0.000
    32 H      -5.416819    -1.912571     0.185489 H          1 UNL1 0.000
    33 H      -8.544023     6.135437    -2.331984 H          1 UNL1 0.000
    34 H     -10.017386     6.692163    -1.526124 H          1 UNL1 0.000
    35 H      -9.965352     5.043172    -2.171412 H          1 UNL1 0.000
    36 H      -4.437994    -0.431015    -2.670843 H          1 UNL1 0.000
    37 H      -1.991421    -0.533264    -2.562650 H          1 UNL1 0.000
    38 H      -2.105035     1.295260     1.351962 H          1 UNL1 0.000
    39 H      -4.544802     1.428092     1.210906 H          1 UNL1 0.000
    40 H       0.003742    -0.547998    -1.224326 H          1 UNL1 0.000
    41 H       0.100583     1.737643     0.844955 H          1 UNL1 0.000
    42 C       1.912350     0.749495     0.252267 C          1 UNL1 0.000
    43 N       2.615782     1.849554     0.616344 N          1 UNL1 0.000
    44 C       3.959737     1.699124     0.681983 C          1 UNL1 0.000
    45 C       4.590137     0.497229     0.410987 C          1 UNL1 0.000
    46 N       3.905076    -0.614156     0.067346 N          1 UNL1 0.000
    47 C       2.557790    -0.460392     0.001325 C          1 UNL1 0.000
    48 H       4.522269     2.582296     0.962262 H          1 UNL1 0.000
    49 H       5.667767     0.395466     0.466675 H          1 UNL1 0.000
    50 H       2.010564    -1.361182    -0.252720 H          1 UNL1 0.000
@<TRIPOS>BOND
     1      1      2   2
     2      2      3   1
     3      3      4   2
     4      4      5   1
     5      5      6   2
     6      6      1   1
     7      4      7   1
     8      7      8   1
     9      8      9   2
    10      9     10   1
    11     10     11   2
    12     11     12   1
    13     12     13   2
    14     13      8   1
    15     14     15   1
    16      1     14   1
    17     16     17   2
    18     17     18   1
    19     18     19   2
    20     19     20   1
    21     20     21   2
    22     21     16   1
    23     19     22   1
    24     22     23   2
    25      7     16   1
    26      2     24   1
    27      3     25   1
    28      5     26   1
    29      6     27   1
    30      9     28   1
    31     10     29   1
    32     11     30   1
    33     12     31   1
    34     13     32   1
    35     15     33   1
    36     15     34   1
    37     15     35   1
    38     17     36   1
    39     18     37   1
    40     20     38   1
    41     21     39   1
    42     22     40   1
    43     23     41   1
    44     42     43   2
    45     43     44   1
    46     44     45   2
    47     45     46   1
    48     46     47   2
    49     47     42   1
    50     44     48   1
    51     45     49   1
    52     47     50   1
    53     23     42   1
