# Produced with molli package
@<TRIPOS>MOLECULE
E_7_L
56 60 0 0 0
SMALL
USER_CHARGES

@<TRIPOS>ATOM
     1 C      -8.122953     4.333692    -1.031273 C          1 UNL1 0.000
     2 C      -8.701859     3.204031    -1.605598 C          1 UNL1 0.000
     3 C      -8.050275     1.962878    -1.532729 C          1 UNL1 0.000
     4 C      -6.821750     1.819721    -0.865970 C          1 UNL1 0.000
     5 C      -6.260737     2.978748    -0.294478 C          1 UNL1 0.000
     6 C      -6.908516     4.214899    -0.364769 C          1 UNL1 0.000
     7 N      -6.135356     0.550435    -0.784105 N          1 UNL1 0.000
     8 C      -6.810346    -0.725483    -0.712016 C          1 UNL1 0.000
     9 C      -8.080362    -0.866412    -0.127445 C          1 UNL1 0.000
    10 C      -8.714560    -2.112777    -0.060304 C          1 UNL1 0.000
    11 C      -8.083897    -3.248756    -0.560335 C          1 UNL1 0.000
    12 C      -6.817724    -3.141424    -1.124484 C          1 UNL1 0.000
    13 C      -6.189490    -1.894654    -1.197830 C          1 UNL1 0.000
    14 O      -8.676327     5.583580    -1.025785 O          1 UNL1 0.000
    15 C      -9.394657     5.923676    -2.206347 C          1 UNL1 0.000
    16 C      -4.701134     0.563690    -0.697808 C          1 UNL1 0.000
    17 C      -3.925150     0.881531    -1.818987 C          1 UNL1 0.000
    18 C      -2.531139     0.915398    -1.723256 C          1 UNL1 0.000
    19 C      -1.887766     0.652749    -0.505225 C          1 UNL1 0.000
    20 C      -2.671884     0.352678     0.617133 C          1 UNL1 0.000
    21 C      -4.064344     0.288794     0.518647 C          1 UNL1 0.000
    22 C      -0.418956     0.753417    -0.448726 C          1 UNL1 0.000
    23 C       0.355768     0.202928     0.493614 C          1 UNL1 0.000
    24 H      -9.664762     3.254871    -2.102896 H          1 UNL1 0.000
    25 H      -8.513841     1.108162    -2.019160 H          1 UNL1 0.000
    26 H      -5.311787     2.935261     0.233876 H          1 UNL1 0.000
    27 H      -6.453843     5.088191     0.095458 H          1 UNL1 0.000
    28 H      -8.585361    -0.008827     0.309142 H          1 UNL1 0.000
    29 H      -9.698851    -2.194813     0.393315 H          1 UNL1 0.000
    30 H      -8.574196    -4.216937    -0.503204 H          1 UNL1 0.000
    31 H      -6.313210    -4.024130    -1.508826 H          1 UNL1 0.000
    32 H      -5.203486    -1.847125    -1.653997 H          1 UNL1 0.000
    33 H      -8.809997     5.704083    -3.106565 H          1 UNL1 0.000
    34 H      -9.579005     7.002211    -2.182896 H          1 UNL1 0.000
    35 H     -10.365521     5.420387    -2.235312 H          1 UNL1 0.000
    36 H      -4.408094     1.090670    -2.769975 H          1 UNL1 0.000
    37 H      -1.953412     1.150117    -2.614840 H          1 UNL1 0.000
    38 H      -2.219171     0.178581     1.588976 H          1 UNL1 0.000
    39 H      -4.658132     0.060687     1.400265 H          1 UNL1 0.000
    40 H       0.043651     1.303128    -1.268633 H          1 UNL1 0.000
    41 H      -0.046158    -0.396098     1.306554 H          1 UNL1 0.000
    42 C       1.818071     0.317678     0.468230 C          1 UNL1 0.000
    43 C       2.449093     1.565581     0.498694 C          1 UNL1 0.000
    44 C       3.844858     1.675197     0.488094 C          1 UNL1 0.000
    45 C       4.585651     0.489052     0.445886 C          1 UNL1 0.000
    46 C       3.988787    -0.771043     0.420652 C          1 UNL1 0.000
    47 C       2.583539    -0.857273     0.439396 C          1 UNL1 0.000
    48 N       5.947968     0.290342     0.423149 N          1 UNL1 0.000
    49 C       6.230647    -1.049405     0.378755 C          1 UNL1 0.000
    50 C       5.035893    -1.731826     0.377236 C          1 UNL1 0.000
    51 H       1.853690     2.475726     0.539740 H          1 UNL1 0.000
    52 H       4.326039     2.647230     0.513406 H          1 UNL1 0.000
    53 H       2.102599    -1.831098     0.418124 H          1 UNL1 0.000
    54 H       6.634828     1.031285     0.435202 H          1 UNL1 0.000
    55 H       7.253226    -1.400448     0.352263 H          1 UNL1 0.000
    56 H       4.922133    -2.807432     0.346495 H          1 UNL1 0.000
@<TRIPOS>BOND
     1      1      2   2
     2      2      3   1
     3      3      4   2
     4      4      5   1
     5      5      6   2
     6      6      1   1
     7      4      7   1
     8      7      8   1
     9      8      9   2
    10      9     10   1
    11     10     11   2
    12     11     12   1
    13     12     13   2
    14     13      8   1
    15     14     15   1
    16      1     14   1
    17     16     17   2
    18     17     18   1
    19     18     19   2
    20     19     20   1
    21     20     21   2
    22     21     16   1
    23     19     22   1
    24     22     23   2
    25      7     16   1
    26      2     24   1
    27      3     25   1
    28      5     26   1
    29      6     27   1
    30      9     28   1
    31     10     29   1
    32     11     30   1
    33     12     31   1
    34     13     32   1
    35     15     33   1
    36     15     34   1
    37     15     35   1
    38     17     36   1
    39     18     37   1
    40     20     38   1
    41     21     39   1
    42     22     40   1
    43     23     41   1
    44     42     43   2
    45     43     44   1
    46     44     45   2
    47     45     46   1
    48     46     47   2
    49     47     42   1
    50     45     48   1
    51     48     49   1
    52     49     50   2
    53     50     46   1
    54     43     51   1
    55     44     52   1
    56     47     53   1
    57     48     54   1
    58     49     55   1
    59     50     56   1
    60     23     42   1
