# Produced with molli package
@<TRIPOS>MOLECULE
E_8_P
53 57 0 0 0
SMALL
USER_CHARGES

@<TRIPOS>ATOM
     1 C      -5.985370     4.301523     0.684183 C          1 UNL1 0.000
     2 C      -6.544220     3.177935     1.283363 C          1 UNL1 0.000
     3 C      -5.874722     1.949735     1.229301 C          1 UNL1 0.000
     4 C      -4.635042     1.823632     0.578005 C          1 UNL1 0.000
     5 C      -4.066447     2.992566     0.032712 C          1 UNL1 0.000
     6 C      -4.731924     4.221589     0.087411 C          1 UNL1 0.000
     7 N      -3.946795     0.557024     0.490025 N          1 UNL1 0.000
     8 C      -4.628507    -0.712267     0.383810 C          1 UNL1 0.000
     9 C      -5.879852    -0.828308    -0.247417 C          1 UNL1 0.000
    10 C      -6.536389    -2.060709    -0.341999 C          1 UNL1 0.000
    11 C      -5.945151    -3.209992     0.173751 C          1 UNL1 0.000
    12 C      -4.697147    -3.128808     0.781160 C          1 UNL1 0.000
    13 C      -4.047355    -1.894761     0.883723 C          1 UNL1 0.000
    14 O      -6.671479     5.481164     0.775474 O          1 UNL1 0.000
    15 C      -7.008885     5.991985    -0.514259 C          1 UNL1 0.000
    16 C      -2.515184     0.564256     0.571725 C          1 UNL1 0.000
    17 C      -1.736564     0.375354    -0.598270 C          1 UNL1 0.000
    18 C      -0.323078     0.396850    -0.612189 C          1 UNL1 0.000
    19 C       0.460705     0.589697     0.545386 C          1 UNL1 0.000
    20 C      -0.260168     0.757764     1.765767 C          1 UNL1 0.000
    21 C      -1.772696     0.750773     1.776451 C          1 UNL1 0.000
    22 N       0.265074     0.927030     2.991507 N          1 UNL1 0.000
    23 S      -1.003716     1.053236     4.048303 S          1 UNL1 0.000
    24 N      -2.284722     0.908330     3.011398 N          1 UNL1 0.000
    25 H      -7.500813     3.253084     1.792460 H          1 UNL1 0.000
    26 H      -6.324409     1.093350     1.725751 H          1 UNL1 0.000
    27 H      -3.098170     2.962102    -0.458612 H          1 UNL1 0.000
    28 H      -4.256106     5.105679    -0.325340 H          1 UNL1 0.000
    29 H      -6.358078     0.042133    -0.689170 H          1 UNL1 0.000
    30 H      -7.509376    -2.119779    -0.822734 H          1 UNL1 0.000
    31 H      -6.454682    -4.167123     0.101320 H          1 UNL1 0.000
    32 H      -4.227295    -4.021909     1.185070 H          1 UNL1 0.000
    33 H      -3.085176    -1.871943     1.388076 H          1 UNL1 0.000
    34 H      -6.120504     6.307108    -1.071024 H          1 UNL1 0.000
    35 H      -7.640699     6.873620    -0.370029 H          1 UNL1 0.000
    36 H      -7.581354     5.256030    -1.090236 H          1 UNL1 0.000
    37 H      -2.259268     0.227107    -1.544493 H          1 UNL1 0.000
    38 H       0.181620     0.265656    -1.571140 H          1 UNL1 0.000
    39 C       1.918701     0.620796     0.516186 C          1 UNL1 0.000
    40 C       2.662477    -0.569852     0.489133 C          1 UNL1 0.000
    41 C       4.059459    -0.538076     0.474057 C          1 UNL1 0.000
    42 C       4.720467     0.687624     0.466541 C          1 UNL1 0.000
    43 C       4.002942     1.878600     0.510258 C          1 UNL1 0.000
    44 C       2.607158     1.844710     0.525603 C          1 UNL1 0.000
    45 O       6.086199     0.752035     0.501433 O          1 UNL1 0.000
    46 C       6.635883     0.423907    -0.773767 C          1 UNL1 0.000
    47 H       2.155143    -1.532139     0.505548 H          1 UNL1 0.000
    48 H       4.622777    -1.466119     0.490343 H          1 UNL1 0.000
    49 H       4.526514     2.829542     0.538617 H          1 UNL1 0.000
    50 H       2.056466     2.782382     0.562380 H          1 UNL1 0.000
    51 H       7.716425     0.588531    -0.723772 H          1 UNL1 0.000
    52 H       6.230622     1.073176    -1.558165 H          1 UNL1 0.000
    53 H       6.465752    -0.628873    -1.022110 H          1 UNL1 0.000
@<TRIPOS>BOND
     1      1      2   2
     2      2      3   1
     3      3      4   2
     4      4      5   1
     5      5      6   2
     6      6      1   1
     7      4      7   1
     8      7      8   1
     9      8      9   2
    10      9     10   1
    11     10     11   2
    12     11     12   1
    13     12     13   2
    14     13      8   1
    15     14     15   1
    16      1     14   1
    17     16     17   2
    18     17     18   1
    19     18     19   2
    20     19     20   1
    21     20     21   1
    22     21     16   1
    23     20     22   2
    24     22     23   1
    25     23     24   1
    26     24     21   2
    27      7     16   1
    28      2     25   1
    29      3     26   1
    30      5     27   1
    31      6     28   1
    32      9     29   1
    33     10     30   1
    34     11     31   1
    35     12     32   1
    36     13     33   1
    37     15     34   1
    38     15     35   1
    39     15     36   1
    40     17     37   1
    41     18     38   1
    42     39     40   2
    43     40     41   1
    44     41     42   2
    45     42     43   1
    46     43     44   2
    47     44     39   1
    48     45     46   1
    49     42     45   1
    50     40     47   1
    51     41     48   1
    52     43     49   1
    53     44     50   1
    54     46     51   1
    55     46     52   1
    56     46     53   1
    57     19     39   1
