# Produced with molli package
@<TRIPOS>MOLECULE
E_8_T
52 56 0 0 0
SMALL
USER_CHARGES

@<TRIPOS>ATOM
     1 C      -6.081786     4.346650     0.647601 C          1 UNL1 0.000
     2 C      -6.673307     3.224576     1.217194 C          1 UNL1 0.000
     3 C      -6.006150     1.993946     1.193903 C          1 UNL1 0.000
     4 C      -4.737857     1.863226     0.601173 C          1 UNL1 0.000
     5 C      -4.139328     3.031786     0.086810 C          1 UNL1 0.000
     6 C      -4.800966     4.263564     0.113286 C          1 UNL1 0.000
     7 N      -4.052551     0.593436     0.537515 N          1 UNL1 0.000
     8 C      -4.732678    -0.675611     0.415213 C          1 UNL1 0.000
     9 C      -5.963219    -0.796847    -0.253678 C          1 UNL1 0.000
    10 C      -6.612018    -2.032123    -0.364899 C          1 UNL1 0.000
    11 C      -6.032736    -3.178461     0.171235 C          1 UNL1 0.000
    12 C      -4.804959    -3.091624     0.817668 C          1 UNL1 0.000
    13 C      -4.164139    -1.854808     0.938260 C          1 UNL1 0.000
    14 O      -6.766290     5.529441     0.702901 O          1 UNL1 0.000
    15 C      -7.058658     6.022104    -0.605000 C          1 UNL1 0.000
    16 C      -2.620329     0.593954     0.622394 C          1 UNL1 0.000
    17 C      -1.842661     0.324256    -0.532427 C          1 UNL1 0.000
    18 C      -0.429725     0.317434    -0.542773 C          1 UNL1 0.000
    19 C       0.355431     0.562148     0.604035 C          1 UNL1 0.000
    20 C      -0.363748     0.823133     1.808757 C          1 UNL1 0.000
    21 C      -1.876945     0.844402     1.815188 C          1 UNL1 0.000
    22 N       0.161779     1.059745     3.023438 N          1 UNL1 0.000
    23 S      -1.106951     1.275141     4.065776 S          1 UNL1 0.000
    24 N      -2.388295     1.087551     3.036349 N          1 UNL1 0.000
    25 H      -7.653593     3.302511     1.678475 H          1 UNL1 0.000
    26 H      -6.483206     1.139150     1.666775 H          1 UNL1 0.000
    27 H      -3.148817     2.999202    -0.358160 H          1 UNL1 0.000
    28 H      -4.302768     5.146970    -0.273769 H          1 UNL1 0.000
    29 H      -6.429676     0.070447    -0.713605 H          1 UNL1 0.000
    30 H      -7.569296    -2.096242    -0.875622 H          1 UNL1 0.000
    31 H      -6.535782    -4.137815     0.084084 H          1 UNL1 0.000
    32 H      -4.344030    -3.982202     1.237101 H          1 UNL1 0.000
    33 H      -3.218140    -1.825578     1.472523 H          1 UNL1 0.000
    34 H      -6.150258     6.317700    -1.139929 H          1 UNL1 0.000
    35 H      -7.684564     6.912800    -0.495052 H          1 UNL1 0.000
    36 H      -7.621453     5.282391    -1.185714 H          1 UNL1 0.000
    37 H      -2.365309     0.128143    -1.469954 H          1 UNL1 0.000
    38 H       0.074913     0.115447    -1.489460 H          1 UNL1 0.000
    39 C       1.813126     0.537301     0.578155 C          1 UNL1 0.000
    40 C       2.551858     1.726630     0.510428 C          1 UNL1 0.000
    41 C       3.949314     1.701002     0.484199 C          1 UNL1 0.000
    42 C       4.636075     0.483597     0.525427 C          1 UNL1 0.000
    43 C       3.904333    -0.707031     0.590170 C          1 UNL1 0.000
    44 C       2.507392    -0.679973     0.612873 C          1 UNL1 0.000
    45 C       6.135081     0.441262     0.519397 C          1 UNL1 0.000
    46 H       2.040687     2.686858     0.486092 H          1 UNL1 0.000
    47 H       4.494520     2.640895     0.438965 H          1 UNL1 0.000
    48 H       4.418366    -1.664678     0.631611 H          1 UNL1 0.000
    49 H       1.961649    -1.619173     0.673196 H          1 UNL1 0.000
    50 H       6.492824    -0.153257    -0.327314 H          1 UNL1 0.000
    51 H       6.502181    -0.000912     1.451182 H          1 UNL1 0.000
    52 H       6.565114     1.444199     0.429899 H          1 UNL1 0.000
@<TRIPOS>BOND
     1      1      2   2
     2      2      3   1
     3      3      4   2
     4      4      5   1
     5      5      6   2
     6      6      1   1
     7      4      7   1
     8      7      8   1
     9      8      9   2
    10      9     10   1
    11     10     11   2
    12     11     12   1
    13     12     13   2
    14     13      8   1
    15     14     15   1
    16      1     14   1
    17     16     17   2
    18     17     18   1
    19     18     19   2
    20     19     20   1
    21     20     21   1
    22     21     16   1
    23     20     22   2
    24     22     23   1
    25     23     24   1
    26     24     21   2
    27      7     16   1
    28      2     25   1
    29      3     26   1
    30      5     27   1
    31      6     28   1
    32      9     29   1
    33     10     30   1
    34     11     31   1
    35     12     32   1
    36     13     33   1
    37     15     34   1
    38     15     35   1
    39     15     36   1
    40     17     37   1
    41     18     38   1
    42     39     40   2
    43     40     41   1
    44     41     42   2
    45     42     43   1
    46     43     44   2
    47     44     39   1
    48     42     45   1
    49     40     46   1
    50     41     47   1
    51     43     48   1
    52     44     49   1
    53     45     50   1
    54     45     51   1
    55     45     52   1
    56     19     39   1
