# Produced with molli package
@<TRIPOS>MOLECULE
E_8_M
50 54 0 0 0
SMALL
USER_CHARGES

@<TRIPOS>ATOM
     1 C      -5.989964     4.206113     0.711235 C          1 UNL1 0.000
     2 C      -6.556739     3.070410     1.278203 C          1 UNL1 0.000
     3 C      -5.883521     1.845091     1.210614 C          1 UNL1 0.000
     4 C      -4.635496     1.732284     0.572777 C          1 UNL1 0.000
     5 C      -4.059768     2.914136     0.062141 C          1 UNL1 0.000
     6 C      -4.726779     4.141554     0.134112 C          1 UNL1 0.000
     7 N      -3.943966     0.468184     0.463324 N          1 UNL1 0.000
     8 C      -4.619131    -0.805792     0.349660 C          1 UNL1 0.000
     9 C      -5.886758    -0.923443    -0.247915 C          1 UNL1 0.000
    10 C      -6.540812    -2.158233    -0.334638 C          1 UNL1 0.000
    11 C      -5.928296    -3.310599     0.147763 C          1 UNL1 0.000
    12 C      -4.660713    -3.230386     0.712300 C          1 UNL1 0.000
    13 C      -4.015682    -1.993430     0.811596 C          1 UNL1 0.000
    14 O      -6.679296     5.383236     0.808679 O          1 UNL1 0.000
    15 C      -7.038002     5.879184    -0.481399 C          1 UNL1 0.000
    16 C      -2.512931     0.479159     0.561628 C          1 UNL1 0.000
    17 C      -1.719657     0.286159    -0.597519 C          1 UNL1 0.000
    18 C      -0.305901     0.288699    -0.591185 C          1 UNL1 0.000
    19 C       0.462503     0.464990     0.579500 C          1 UNL1 0.000
    20 C      -0.273658     0.645335     1.787704 C          1 UNL1 0.000
    21 C      -1.785802     0.659142     1.777836 C          1 UNL1 0.000
    22 N       0.238128     0.807592     3.021418 N          1 UNL1 0.000
    23 S      -1.044701     0.953439     4.059722 S          1 UNL1 0.000
    24 N      -2.312246     0.823080     3.004448 N          1 UNL1 0.000
    25 H      -7.522324     3.133648     1.771628 H          1 UNL1 0.000
    26 H      -6.339904     0.980008     1.685077 H          1 UNL1 0.000
    27 H      -3.084240     2.895355    -0.415269 H          1 UNL1 0.000
    28 H      -4.248126     5.036100    -0.252226 H          1 UNL1 0.000
    29 H      -6.384089    -0.052326    -0.666362 H          1 UNL1 0.000
    30 H      -7.529542    -2.216410    -0.782395 H          1 UNL1 0.000
    31 H      -6.436070    -4.269158     0.082040 H          1 UNL1 0.000
    32 H      -4.172095    -4.126218     1.086828 H          1 UNL1 0.000
    33 H      -3.037401    -1.975013     1.283786 H          1 UNL1 0.000
    34 H      -6.159904     6.221586    -1.038547 H          1 UNL1 0.000
    35 H      -7.698953     6.739227    -0.337643 H          1 UNL1 0.000
    36 H      -7.586277     5.124082    -1.056457 H          1 UNL1 0.000
    37 H      -2.230613     0.142739    -1.551287 H          1 UNL1 0.000
    38 H       0.210379     0.147654    -1.542326 H          1 UNL1 0.000
    39 C       1.920667     0.455282     0.576489 C          1 UNL1 0.000
    40 C       2.644864     1.654674     0.502413 C          1 UNL1 0.000
    41 C       4.043185     1.647135     0.508597 C          1 UNL1 0.000
    42 C       4.736996     0.436730     0.589514 C          1 UNL1 0.000
    43 C       4.026486    -0.764745     0.659191 C          1 UNL1 0.000
    44 C       2.628176    -0.754017     0.650703 C          1 UNL1 0.000
    45 C       6.171441     0.427675     0.603885 C          1 UNL1 0.000
    46 N       7.330461     0.419687     0.611734 N          1 UNL1 0.000
    47 H       2.120273     2.607331     0.450485 H          1 UNL1 0.000
    48 H       4.581791     2.591581     0.457430 H          1 UNL1 0.000
    49 H       4.552225    -1.715314     0.727874 H          1 UNL1 0.000
    50 H       2.090590    -1.698436     0.717275 H          1 UNL1 0.000
@<TRIPOS>BOND
     1      1      2   2
     2      2      3   1
     3      3      4   2
     4      4      5   1
     5      5      6   2
     6      6      1   1
     7      4      7   1
     8      7      8   1
     9      8      9   2
    10      9     10   1
    11     10     11   2
    12     11     12   1
    13     12     13   2
    14     13      8   1
    15     14     15   1
    16      1     14   1
    17     16     17   2
    18     17     18   1
    19     18     19   2
    20     19     20   1
    21     20     21   1
    22     21     16   1
    23     20     22   2
    24     22     23   1
    25     23     24   1
    26     24     21   2
    27      7     16   1
    28      2     25   1
    29      3     26   1
    30      5     27   1
    31      6     28   1
    32      9     29   1
    33     10     30   1
    34     11     31   1
    35     12     32   1
    36     13     33   1
    37     15     34   1
    38     15     35   1
    39     15     36   1
    40     17     37   1
    41     18     38   1
    42     39     40   2
    43     40     41   1
    44     41     42   2
    45     42     43   1
    46     43     44   2
    47     44     39   1
    48     45     46   3
    49     42     45   1
    50     40     47   1
    51     41     48   1
    52     43     49   1
    53     44     50   1
    54     19     39   1
