# Produced with molli package
@<TRIPOS>MOLECULE
E_8_S
54 58 0 0 0
SMALL
USER_CHARGES

@<TRIPOS>ATOM
     1 C      -5.953526     4.377221     0.311996 C          1 UNL1 0.000
     2 C      -6.561550     3.250083    -0.232872 C          1 UNL1 0.000
     3 C      -5.900711     2.010366    -0.209965 C          1 UNL1 0.000
     4 C      -4.642766     1.856251     0.398472 C          1 UNL1 0.000
     5 C      -4.043350     3.022977     0.916204 C          1 UNL1 0.000
     6 C      -4.692566     4.261509     0.883064 C          1 UNL1 0.000
     7 N      -3.968935     0.576848     0.478255 N          1 UNL1 0.000
     8 C      -4.640354    -0.705714     0.557069 C          1 UNL1 0.000
     9 C      -5.954663    -0.845521     1.034041 C          1 UNL1 0.000
    10 C      -6.590454    -2.093903     1.076721 C          1 UNL1 0.000
    11 C      -5.911745    -3.242219     0.682059 C          1 UNL1 0.000
    12 C      -4.595454    -3.144540     0.250187 C          1 UNL1 0.000
    13 C      -3.971797    -1.893693     0.186273 C          1 UNL1 0.000
    14 O      -6.540022     5.607823     0.405653 O          1 UNL1 0.000
    15 C      -7.217642     6.030420    -0.772202 C          1 UNL1 0.000
    16 C      -2.536047     0.580979     0.585221 C          1 UNL1 0.000
    17 C      -1.742885     0.702566    -0.583160 C          1 UNL1 0.000
    18 C      -0.330063     0.689429    -0.575655 C          1 UNL1 0.000
    19 C       0.438183     0.571848     0.603137 C          1 UNL1 0.000
    20 C      -0.297734     0.468861     1.820225 C          1 UNL1 0.000
    21 C      -1.810292     0.467430     1.811020 C          1 UNL1 0.000
    22 N       0.212670     0.371336     3.061262 N          1 UNL1 0.000
    23 S      -1.071064     0.305024     4.106462 S          1 UNL1 0.000
    24 N      -2.338091     0.375360     3.044595 N          1 UNL1 0.000
    25 H      -7.561112     3.297620    -0.652213 H          1 UNL1 0.000
    26 H      -6.396674     1.162774    -0.675784 H          1 UNL1 0.000
    27 H      -3.067917     2.990095     1.392427 H          1 UNL1 0.000
    28 H      -4.210428     5.134579     1.315039 H          1 UNL1 0.000
    29 H      -6.504716     0.012875     1.408969 H          1 UNL1 0.000
    30 H      -7.614813    -2.166389     1.433165 H          1 UNL1 0.000
    31 H      -6.401974    -4.211104     0.724612 H          1 UNL1 0.000
    32 H      -4.047824    -4.037861    -0.038840 H          1 UNL1 0.000
    33 H      -2.945885    -1.869851    -0.169553 H          1 UNL1 0.000
    34 H      -6.538341     6.034860    -1.631170 H          1 UNL1 0.000
    35 H      -7.557545     7.057632    -0.606269 H          1 UNL1 0.000
    36 H      -8.102972     5.421595    -0.975489 H          1 UNL1 0.000
    37 H      -2.253510     0.791409    -1.543560 H          1 UNL1 0.000
    38 H       0.187167     0.770227    -1.533329 H          1 UNL1 0.000
    39 C       1.895954     0.563929     0.591481 C          1 UNL1 0.000
    40 C       2.616514     1.762049     0.523296 C          1 UNL1 0.000
    41 C       4.014471     1.751908     0.492206 C          1 UNL1 0.000
    42 C       4.724879     0.543246     0.526273 C          1 UNL1 0.000
    43 C       4.010281    -0.655705     0.607716 C          1 UNL1 0.000
    44 C       2.609081    -0.642377     0.635323 C          1 UNL1 0.000
    45 C       6.219044     0.613802     0.474435 C          1 UNL1 0.000
    46 C       7.051754    -0.643039     0.441111 C          1 UNL1 0.000
    47 O       6.769717     1.713229     0.471541 O          1 UNL1 0.000
    48 H       2.094885     2.717123     0.502300 H          1 UNL1 0.000
    49 H       4.546815     2.700767     0.444066 H          1 UNL1 0.000
    50 H       4.502154    -1.620858     0.658389 H          1 UNL1 0.000
    51 H       2.072820    -1.588212     0.697357 H          1 UNL1 0.000
    52 H       7.842672    -0.512565    -0.304462 H          1 UNL1 0.000
    53 H       6.494010    -1.531796     0.150742 H          1 UNL1 0.000
    54 H       7.501517    -0.799817     1.424944 H          1 UNL1 0.000
@<TRIPOS>BOND
     1      1      2   2
     2      2      3   1
     3      3      4   2
     4      4      5   1
     5      5      6   2
     6      6      1   1
     7      4      7   1
     8      7      8   1
     9      8      9   2
    10      9     10   1
    11     10     11   2
    12     11     12   1
    13     12     13   2
    14     13      8   1
    15     14     15   1
    16      1     14   1
    17     16     17   2
    18     17     18   1
    19     18     19   2
    20     19     20   1
    21     20     21   1
    22     21     16   1
    23     20     22   2
    24     22     23   1
    25     23     24   1
    26     24     21   2
    27      7     16   1
    28      2     25   1
    29      3     26   1
    30      5     27   1
    31      6     28   1
    32      9     29   1
    33     10     30   1
    34     11     31   1
    35     12     32   1
    36     13     33   1
    37     15     34   1
    38     15     35   1
    39     15     36   1
    40     17     37   1
    41     18     38   1
    42     39     40   2
    43     40     41   1
    44     41     42   2
    45     42     43   1
    46     43     44   2
    47     44     39   1
    48     42     45   1
    49     45     46   1
    50     45     47   2
    51     40     48   1
    52     41     49   1
    53     43     50   1
    54     44     51   1
    55     46     52   1
    56     46     53   1
    57     46     54   1
    58     19     39   1
