# Produced with molli package
@<TRIPOS>MOLECULE
E_8_N
46 50 0 0 0
SMALL
USER_CHARGES

@<TRIPOS>ATOM
     1 C      -5.881046     4.284949     0.673526 C          1 UNL1 0.000
     2 C      -6.502547     3.150121     1.180081 C          1 UNL1 0.000
     3 C      -5.849149     1.913488     1.123196 C          1 UNL1 0.000
     4 C      -4.568727     1.787360     0.554144 C          1 UNL1 0.000
     5 C      -3.943928     2.969079     0.102270 C          1 UNL1 0.000
     6 C      -4.589780     4.208295     0.165865 C          1 UNL1 0.000
     7 N      -3.897142     0.510541     0.456727 N          1 UNL1 0.000
     8 C      -4.591129    -0.752757     0.344337 C          1 UNL1 0.000
     9 C      -5.826946    -0.864232    -0.316854 C          1 UNL1 0.000
    10 C      -6.497649    -2.089813    -0.405065 C          1 UNL1 0.000
    11 C      -5.933171    -3.238162     0.142107 C          1 UNL1 0.000
    12 C      -4.696791    -3.163507     0.773110 C          1 UNL1 0.000
    13 C      -4.034894    -1.935744     0.872073 C          1 UNL1 0.000
    14 O      -6.539281     5.480532     0.757291 O          1 UNL1 0.000
    15 C      -6.947396     5.919776    -0.538864 C          1 UNL1 0.000
    16 C      -2.464616     0.492198     0.540031 C          1 UNL1 0.000
    17 C      -1.691079     0.284776    -0.633183 C          1 UNL1 0.000
    18 C      -0.278536     0.259036    -0.648368 C          1 UNL1 0.000
    19 C       0.493392     0.423930     0.515058 C          1 UNL1 0.000
    20 C      -0.207196     0.614924     1.740359 C          1 UNL1 0.000
    21 C      -1.719567     0.656037     1.748239 C          1 UNL1 0.000
    22 N       0.322968     0.762908     2.966345 N          1 UNL1 0.000
    23 S      -0.943721     0.928522     4.021864 S          1 UNL1 0.000
    24 N      -2.227680     0.826550     2.983041 N          1 UNL1 0.000
    25 H      -7.492673     3.222949     1.620366 H          1 UNL1 0.000
    26 H      -6.349510     1.049817     1.553617 H          1 UNL1 0.000
    27 H      -2.943659     2.943790    -0.320459 H          1 UNL1 0.000
    28 H      -4.077368     5.103006    -0.174544 H          1 UNL1 0.000
    29 H      -6.283000     0.004375    -0.784787 H          1 UNL1 0.000
    30 H      -7.461338    -2.144655    -0.904742 H          1 UNL1 0.000
    31 H      -6.454106    -4.189597     0.075408 H          1 UNL1 0.000
    32 H      -4.246235    -4.056086     1.199597 H          1 UNL1 0.000
    33 H      -3.083959    -1.917776     1.397382 H          1 UNL1 0.000
    34 H      -6.086234     6.175532    -1.165275 H          1 UNL1 0.000
    35 H      -7.550839     6.823610    -0.411971 H          1 UNL1 0.000
    36 H      -7.568950     5.164625    -1.033616 H          1 UNL1 0.000
    37 H      -2.219204     0.153186    -1.578993 H          1 UNL1 0.000
    38 H       0.225578     0.108576    -1.604100 H          1 UNL1 0.000
    39 C       1.937889     0.375461     0.485716 C          1 UNL1 0.000
    40 C       2.696480     1.528433     0.506491 C          1 UNL1 0.000
    41 S       4.376128     1.199436     0.452330 S          1 UNL1 0.000
    42 C       4.099893    -0.488001     0.404737 C          1 UNL1 0.000
    43 C       2.756500    -0.793556     0.419885 C          1 UNL1 0.000
    44 H       2.354202     2.553566     0.555556 H          1 UNL1 0.000
    45 H       4.934981    -1.173978     0.370100 H          1 UNL1 0.000
    46 H       2.380650    -1.809331     0.399621 H          1 UNL1 0.000
@<TRIPOS>BOND
     1      1      2   2
     2      2      3   1
     3      3      4   2
     4      4      5   1
     5      5      6   2
     6      6      1   1
     7      4      7   1
     8      7      8   1
     9      8      9   2
    10      9     10   1
    11     10     11   2
    12     11     12   1
    13     12     13   2
    14     13      8   1
    15     14     15   1
    16      1     14   1
    17     16     17   2
    18     17     18   1
    19     18     19   2
    20     19     20   1
    21     20     21   1
    22     21     16   1
    23     20     22   2
    24     22     23   1
    25     23     24   1
    26     24     21   2
    27      7     16   1
    28      2     25   1
    29      3     26   1
    30      5     27   1
    31      6     28   1
    32      9     29   1
    33     10     30   1
    34     11     31   1
    35     12     32   1
    36     13     33   1
    37     15     34   1
    38     15     35   1
    39     15     36   1
    40     17     37   1
    41     18     38   1
    42     39     40   2
    43     40     41   1
    44     41     42   1
    45     42     43   2
    46     43     39   1
    47     40     44   1
    48     42     45   1
    49     43     46   1
    50     19     39   1
