# Produced with molli package
@<TRIPOS>MOLECULE
E_8_Q
47 51 0 0 0
SMALL
USER_CHARGES

@<TRIPOS>ATOM
     1 C      -5.999087     4.306742     0.649745 C          1 UNL1 0.000
     2 C      -6.530227     3.200987     1.305081 C          1 UNL1 0.000
     3 C      -5.856520     1.974633     1.268771 C          1 UNL1 0.000
     4 C      -4.638813     1.832265     0.580268 C          1 UNL1 0.000
     5 C      -4.092916     2.985169    -0.017724 C          1 UNL1 0.000
     6 C      -4.764408     4.211967     0.016593 C          1 UNL1 0.000
     7 N      -3.954199     0.563417     0.507416 N          1 UNL1 0.000
     8 C      -4.642565    -0.704836     0.421905 C          1 UNL1 0.000
     9 C      -5.910224    -0.817186    -0.177679 C          1 UNL1 0.000
    10 C      -6.573254    -2.047264    -0.257547 C          1 UNL1 0.000
    11 C      -5.973322    -3.199078     0.241452 C          1 UNL1 0.000
    12 C      -4.710279    -3.122421     0.817248 C          1 UNL1 0.000
    13 C      -4.053658    -1.890466     0.904787 C          1 UNL1 0.000
    14 O      -6.696826     5.480837     0.722952 O          1 UNL1 0.000
    15 C      -7.017321     5.990532    -0.571369 C          1 UNL1 0.000
    16 C      -2.521884     0.567938     0.566183 C          1 UNL1 0.000
    17 C      -1.762295     0.449749    -0.624929 C          1 UNL1 0.000
    18 C      -0.349321     0.459669    -0.658769 C          1 UNL1 0.000
    19 C       0.452114     0.548847     0.499939 C          1 UNL1 0.000
    20 C      -0.246978     0.641756     1.736278 C          1 UNL1 0.000
    21 C      -1.759484     0.667192     1.769771 C          1 UNL1 0.000
    22 N       0.298813     0.696589     2.964543 N          1 UNL1 0.000
    23 S      -0.952771     0.815864     4.043843 S          1 UNL1 0.000
    24 N      -2.250376     0.756113     3.018981 N          1 UNL1 0.000
    25 H      -7.470511     3.288099     1.842005 H          1 UNL1 0.000
    26 H      -6.285384     1.131764     1.805423 H          1 UNL1 0.000
    27 H      -3.140245     2.944655    -0.537717 H          1 UNL1 0.000
    28 H      -4.304768     5.082427    -0.440936 H          1 UNL1 0.000
    29 H      -6.397250     0.054274    -0.607673 H          1 UNL1 0.000
    30 H      -7.557926    -2.102226    -0.714441 H          1 UNL1 0.000
    31 H      -6.487529    -4.154479     0.180124 H          1 UNL1 0.000
    32 H      -4.233502    -4.017833     1.207737 H          1 UNL1 0.000
    33 H      -3.079127    -1.874220     1.384072 H          1 UNL1 0.000
    34 H      -6.125729     6.342666    -1.099785 H          1 UNL1 0.000
    35 H      -7.683780     6.847947    -0.437321 H          1 UNL1 0.000
    36 H      -7.547746     5.240772    -1.169515 H          1 UNL1 0.000
    37 H      -2.300274     0.368449    -1.570997 H          1 UNL1 0.000
    38 H       0.141709     0.397152    -1.631696 H          1 UNL1 0.000
    39 C       1.901940     0.549623     0.462326 C          1 UNL1 0.000
    40 N       2.493683     1.742645     0.199220 N          1 UNL1 0.000
    41 C       3.846896     1.734350     0.179766 C          1 UNL1 0.000
    42 C       4.588455     0.581002     0.373254 C          1 UNL1 0.000
    43 N       4.012544    -0.619405     0.603270 N          1 UNL1 0.000
    44 C       2.657429    -0.604945     0.654121 C          1 UNL1 0.000
    45 H       4.324751     2.691547     0.005158 H          1 UNL1 0.000
    46 H       5.672060     0.592751     0.349410 H          1 UNL1 0.000
    47 H       2.189328    -1.564139     0.848516 H          1 UNL1 0.000
@<TRIPOS>BOND
     1      1      2   2
     2      2      3   1
     3      3      4   2
     4      4      5   1
     5      5      6   2
     6      6      1   1
     7      4      7   1
     8      7      8   1
     9      8      9   2
    10      9     10   1
    11     10     11   2
    12     11     12   1
    13     12     13   2
    14     13      8   1
    15     14     15   1
    16      1     14   1
    17     16     17   2
    18     17     18   1
    19     18     19   2
    20     19     20   1
    21     20     21   1
    22     21     16   1
    23     20     22   2
    24     22     23   1
    25     23     24   1
    26     24     21   2
    27      7     16   1
    28      2     25   1
    29      3     26   1
    30      5     27   1
    31      6     28   1
    32      9     29   1
    33     10     30   1
    34     11     31   1
    35     12     32   1
    36     13     33   1
    37     15     34   1
    38     15     35   1
    39     15     36   1
    40     17     37   1
    41     18     38   1
    42     39     40   2
    43     40     41   1
    44     41     42   2
    45     42     43   1
    46     43     44   2
    47     44     39   1
    48     41     45   1
    49     42     46   1
    50     44     47   1
    51     19     39   1
