# Produced with molli package
@<TRIPOS>MOLECULE
E_8_L
53 58 0 0 0
SMALL
USER_CHARGES

@<TRIPOS>ATOM
     1 C      -5.908919     4.341356     0.399821 C          1 UNL1 0.000
     2 C      -6.533237     3.218243    -0.134989 C          1 UNL1 0.000
     3 C      -5.885124     1.973564    -0.110585 C          1 UNL1 0.000
     4 C      -4.619742     1.813379     0.481603 C          1 UNL1 0.000
     5 C      -4.010381     2.971110     1.005717 C          1 UNL1 0.000
     6 C      -4.650129     4.214686     0.974833 C          1 UNL1 0.000
     7 N      -3.952354     0.531220     0.534675 N          1 UNL1 0.000
     8 C      -4.641715    -0.739602     0.574877 C          1 UNL1 0.000
     9 C      -5.909726    -0.885199     1.162821 C          1 UNL1 0.000
    10 C      -6.570961    -2.119506     1.172813 C          1 UNL1 0.000
    11 C      -5.965036    -3.244180     0.620710 C          1 UNL1 0.000
    12 C      -4.694910    -3.138137     0.066135 C          1 UNL1 0.000
    13 C      -4.042338    -1.901345     0.044913 C          1 UNL1 0.000
    14 O      -6.479250     5.581500     0.470509 O          1 UNL1 0.000
    15 C      -7.128062     5.992992    -0.728284 C          1 UNL1 0.000
    16 C      -2.520296     0.513275     0.633687 C          1 UNL1 0.000
    17 C      -1.729697     0.715173    -0.525077 C          1 UNL1 0.000
    18 C      -0.317024     0.698086    -0.522581 C          1 UNL1 0.000
    19 C       0.454659     0.497518     0.642696 C          1 UNL1 0.000
    20 C      -0.278136     0.309517     1.851633 C          1 UNL1 0.000
    21 C      -1.791605     0.310943     1.846025 C          1 UNL1 0.000
    22 N       0.233334     0.127764     3.082652 N          1 UNL1 0.000
    23 S      -1.047508    -0.017707     4.121804 S          1 UNL1 0.000
    24 N      -2.317276     0.135750     3.071804 N          1 UNL1 0.000
    25 H      -7.533340     3.275454    -0.551775 H          1 UNL1 0.000
    26 H      -6.392538     1.126861    -0.565901 H          1 UNL1 0.000
    27 H      -3.033942     2.924983     1.479435 H          1 UNL1 0.000
    28 H      -4.160579     5.084095     1.405624 H          1 UNL1 0.000
    29 H      -6.393788    -0.040702     1.646403 H          1 UNL1 0.000
    30 H      -7.556429    -2.201029     1.623969 H          1 UNL1 0.000
    31 H      -6.476030    -4.203180     0.633436 H          1 UNL1 0.000
    32 H      -4.207095    -4.014602    -0.352511 H          1 UNL1 0.000
    33 H      -3.056750    -1.860490    -0.410116 H          1 UNL1 0.000
    34 H      -6.444983     5.936058    -1.582723 H          1 UNL1 0.000
    35 H      -7.422734     7.039519    -0.602280 H          1 UNL1 0.000
    36 H      -8.038007     5.415731    -0.915475 H          1 UNL1 0.000
    37 H      -2.241801     0.873991    -1.475434 H          1 UNL1 0.000
    38 H       0.199272     0.843695    -1.473077 H          1 UNL1 0.000
    39 C       1.913404     0.492328     0.624543 C          1 UNL1 0.000
    40 C       2.627326     1.699047     0.626939 C          1 UNL1 0.000
    41 C       4.026499     1.728876     0.597002 C          1 UNL1 0.000
    42 C       4.697335     0.503268     0.558325 C          1 UNL1 0.000
    43 C       4.028755    -0.720417     0.550966 C          1 UNL1 0.000
    44 C       2.620243    -0.723875     0.585951 C          1 UNL1 0.000
    45 N       6.045218     0.226948     0.527351 N          1 UNL1 0.000
    46 C       6.252038    -1.126140     0.492826 C          1 UNL1 0.000
    47 C       5.019552    -1.739650     0.507701 C          1 UNL1 0.000
    48 H       2.088435     2.644601     0.663153 H          1 UNL1 0.000
    49 H       4.562498     2.672188     0.608230 H          1 UNL1 0.000
    50 H       2.086952    -1.670771     0.586799 H          1 UNL1 0.000
    51 H       6.773647     0.928744     0.531929 H          1 UNL1 0.000
    52 H       7.252685    -1.534705     0.464811 H          1 UNL1 0.000
    53 H       4.846020    -2.807321     0.492138 H          1 UNL1 0.000
@<TRIPOS>BOND
     1      1      2   2
     2      2      3   1
     3      3      4   2
     4      4      5   1
     5      5      6   2
     6      6      1   1
     7      4      7   1
     8      7      8   1
     9      8      9   2
    10      9     10   1
    11     10     11   2
    12     11     12   1
    13     12     13   2
    14     13      8   1
    15     14     15   1
    16      1     14   1
    17     16     17   2
    18     17     18   1
    19     18     19   2
    20     19     20   1
    21     20     21   1
    22     21     16   1
    23     20     22   2
    24     22     23   1
    25     23     24   1
    26     24     21   2
    27      7     16   1
    28      2     25   1
    29      3     26   1
    30      5     27   1
    31      6     28   1
    32      9     29   1
    33     10     30   1
    34     11     31   1
    35     12     32   1
    36     13     33   1
    37     15     34   1
    38     15     35   1
    39     15     36   1
    40     17     37   1
    41     18     38   1
    42     39     40   2
    43     40     41   1
    44     41     42   2
    45     42     43   1
    46     43     44   2
    47     44     39   1
    48     42     45   1
    49     45     46   1
    50     46     47   2
    51     47     43   1
    52     40     48   1
    53     41     49   1
    54     44     50   1
    55     45     51   1
    56     46     52   1
    57     47     53   1
    58     19     39   1
