# Produced with molli package
@<TRIPOS>MOLECULE
E_8_R
50 54 0 0 0
SMALL
USER_CHARGES

@<TRIPOS>ATOM
     1 C      -5.741405     4.369434     0.204984 C          1 UNL1 0.000
     2 C      -6.305486     3.270803    -0.439845 C          1 UNL1 0.000
     3 C      -5.683032     2.014690    -0.370350 C          1 UNL1 0.000
     4 C      -4.497303     1.824778     0.359068 C          1 UNL1 0.000
     5 C      -3.949945     2.948835     1.004552 C          1 UNL1 0.000
     6 C      -4.569366     4.200016     0.936285 C          1 UNL1 0.000
     7 N      -3.840613     0.542135     0.424313 N          1 UNL1 0.000
     8 C      -4.545458    -0.718963     0.473334 C          1 UNL1 0.000
     9 C      -5.839850    -0.829976     1.008581 C          1 UNL1 0.000
    10 C      -6.506193    -2.060708     1.051114 C          1 UNL1 0.000
    11 C      -5.884577    -3.212270     0.576753 C          1 UNL1 0.000
    12 C      -4.595922    -3.135891     0.061384 C          1 UNL1 0.000
    13 C      -3.936139    -1.904103     0.010093 C          1 UNL1 0.000
    14 O      -6.251986     5.637118     0.217768 O          1 UNL1 0.000
    15 C      -7.092064     5.979050    -0.877669 C          1 UNL1 0.000
    16 C      -2.410145     0.519457     0.528543 C          1 UNL1 0.000
    17 C      -1.611959     0.792692    -0.609534 C          1 UNL1 0.000
    18 C      -0.199177     0.741833    -0.605599 C          1 UNL1 0.000
    19 C       0.566299     0.414225     0.536380 C          1 UNL1 0.000
    20 C      -0.177190     0.170645     1.727686 C          1 UNL1 0.000
    21 C      -1.687963     0.222756     1.723923 C          1 UNL1 0.000
    22 N       0.325712    -0.118875     2.942757 N          1 UNL1 0.000
    23 S      -0.960103    -0.261020     3.977692 S          1 UNL1 0.000
    24 N      -2.219867    -0.015172     2.936021 N          1 UNL1 0.000
    25 H      -7.233394     3.353909    -0.995696 H          1 UNL1 0.000
    26 H      -6.133908     1.184654    -0.909123 H          1 UNL1 0.000
    27 H      -3.042174     2.865474     1.595936 H          1 UNL1 0.000
    28 H      -4.127221     5.047534     1.454108 H          1 UNL1 0.000
    29 H      -6.339948     0.038481     1.429194 H          1 UNL1 0.000
    30 H      -7.508122    -2.118297     1.468477 H          1 UNL1 0.000
    31 H      -6.399550    -4.168385     0.617664 H          1 UNL1 0.000
    32 H      -4.099169    -4.032045    -0.301198 H          1 UNL1 0.000
    33 H      -2.935343    -1.885830    -0.412093 H          1 UNL1 0.000
    34 H      -6.606968     5.757871    -1.834625 H          1 UNL1 0.000
    35 H      -7.269780     7.058107    -0.835657 H          1 UNL1 0.000
    36 H      -8.062066     5.478570    -0.801386 H          1 UNL1 0.000
    37 H      -2.116070     1.033676    -1.547024 H          1 UNL1 0.000
    38 H       0.324526     0.957017    -1.539268 H          1 UNL1 0.000
    39 C       2.020988     0.339823     0.523087 C          1 UNL1 0.000
    40 N       2.661860     1.464928     0.110724 N          1 UNL1 0.000
    41 C       4.019006     1.455034     0.118378 C          1 UNL1 0.000
    42 C       4.763654     0.348779     0.492388 C          1 UNL1 0.000
    43 C       4.104252    -0.817309     0.875768 C          1 UNL1 0.000
    44 C       2.710376    -0.817989     0.891974 C          1 UNL1 0.000
    45 N       6.213793     0.418211     0.484919 N          1 UNL1 0.000
    46 O       6.742675     1.307580    -0.194741 O          1 UNL1 0.000
    47 O       6.830107    -0.421024     1.156801 O          1 UNL1 0.000
    48 H       4.479091     2.392664    -0.183766 H          1 UNL1 0.000
    49 H       4.648582    -1.712816     1.165004 H          1 UNL1 0.000
    50 H       2.170999    -1.711346     1.195539 H          1 UNL1 0.000
@<TRIPOS>BOND
     1      1      2   2
     2      2      3   1
     3      3      4   2
     4      4      5   1
     5      5      6   2
     6      6      1   1
     7      4      7   1
     8      7      8   1
     9      8      9   2
    10      9     10   1
    11     10     11   2
    12     11     12   1
    13     12     13   2
    14     13      8   1
    15     14     15   1
    16      1     14   1
    17     16     17   2
    18     17     18   1
    19     18     19   2
    20     19     20   1
    21     20     21   1
    22     21     16   1
    23     20     22   2
    24     22     23   1
    25     23     24   1
    26     24     21   2
    27      7     16   1
    28      2     25   1
    29      3     26   1
    30      5     27   1
    31      6     28   1
    32      9     29   1
    33     10     30   1
    34     11     31   1
    35     12     32   1
    36     13     33   1
    37     15     34   1
    38     15     35   1
    39     15     36   1
    40     17     37   1
    41     18     38   1
    42     39     40   2
    43     40     41   1
    44     41     42   2
    45     42     43   1
    46     43     44   2
    47     44     39   1
    48     45     46   2
    49     45     47   1
    50     42     45   1
    51     41     48   1
    52     43     49   1
    53     44     50   1
    54     19     39   1
