# Produced with molli package
@<TRIPOS>MOLECULE
E_8_K
51 55 0 0 0
SMALL
USER_CHARGES

@<TRIPOS>ATOM
     1 C      -5.883930     4.318839     0.719481 C          1 UNL1 0.000
     2 C      -6.552296     3.183769     1.160455 C          1 UNL1 0.000
     3 C      -5.918742     1.935409     1.102122 C          1 UNL1 0.000
     4 C      -4.618097     1.794589     0.584159 C          1 UNL1 0.000
     5 C      -3.953937     2.979285     0.193592 C          1 UNL1 0.000
     6 C      -4.574105     4.230393     0.269427 C          1 UNL1 0.000
     7 N      -3.957071     0.508682     0.484308 N          1 UNL1 0.000
     8 C      -4.649488    -0.759337     0.407798 C          1 UNL1 0.000
     9 C      -5.905518    -0.888974    -0.209953 C          1 UNL1 0.000
    10 C      -6.577005    -2.117495    -0.248431 C          1 UNL1 0.000
    11 C      -5.989821    -3.254972     0.296922 C          1 UNL1 0.000
    12 C      -4.729010    -3.166911     0.874334 C          1 UNL1 0.000
    13 C      -4.069239    -1.934897     0.928646 C          1 UNL1 0.000
    14 O      -6.495736     5.538091     0.806745 O          1 UNL1 0.000
    15 C      -7.075283     5.883575    -0.452105 C          1 UNL1 0.000
    16 C      -2.522784     0.489624     0.544216 C          1 UNL1 0.000
    17 C      -1.765534     0.334188    -0.644760 C          1 UNL1 0.000
    18 C      -0.352116     0.355448    -0.683914 C          1 UNL1 0.000
    19 C       0.450746     0.517023     0.465562 C          1 UNL1 0.000
    20 C      -0.248793     0.645989     1.702213 C          1 UNL1 0.000
    21 C      -1.759021     0.637981     1.741757 C          1 UNL1 0.000
    22 N       0.301082     0.780351     2.922863 N          1 UNL1 0.000
    23 S      -0.948562     0.876951     4.006318 S          1 UNL1 0.000
    24 N      -2.247709     0.762372     2.988369 N          1 UNL1 0.000
    25 H      -7.559086     3.265277     1.559281 H          1 UNL1 0.000
    26 H      -6.455093     1.076661     1.496509 H          1 UNL1 0.000
    27 H      -2.936186     2.951769    -0.184398 H          1 UNL1 0.000
    28 H      -4.032373     5.125576    -0.020922 H          1 UNL1 0.000
    29 H      -6.380915    -0.033188    -0.681669 H          1 UNL1 0.000
    30 H      -7.559845    -2.183039    -0.708044 H          1 UNL1 0.000
    31 H      -6.511089    -4.208158     0.269085 H          1 UNL1 0.000
    32 H      -4.257561    -4.051372     1.295164 H          1 UNL1 0.000
    33 H      -3.098194    -1.909467     1.415186 H          1 UNL1 0.000
    34 H      -6.324005     5.912114    -1.249464 H          1 UNL1 0.000
    35 H      -7.506029     6.885149    -0.360017 H          1 UNL1 0.000
    36 H      -7.881349     5.189058    -0.713212 H          1 UNL1 0.000
    37 H      -2.306071     0.218227    -1.585945 H          1 UNL1 0.000
    38 H       0.134022     0.254725    -1.655850 H          1 UNL1 0.000
    39 C       1.908167     0.561871     0.418178 C          1 UNL1 0.000
    40 C       2.584180     1.793521     0.494654 C          1 UNL1 0.000
    41 C       3.979277     1.847031     0.483886 C          1 UNL1 0.000
    42 C       4.699165     0.654279     0.385314 C          1 UNL1 0.000
    43 C       4.055369    -0.582437     0.292819 C          1 UNL1 0.000
    44 C       2.659122    -0.621898     0.312057 C          1 UNL1 0.000
    45 N       6.153196     0.701311     0.385004 N          1 UNL1 0.000
    46 O       6.698164     1.449351     1.206510 O          1 UNL1 0.000
    47 O       6.742099    -0.010428    -0.441472 O          1 UNL1 0.000
    48 H       2.019366     2.721068     0.578772 H          1 UNL1 0.000
    49 H       4.485404     2.806863     0.555467 H          1 UNL1 0.000
    50 H       4.622897    -1.507686     0.223833 H          1 UNL1 0.000
    51 H       2.154886    -1.585886     0.264188 H          1 UNL1 0.000
@<TRIPOS>BOND
     1      1      2   2
     2      2      3   1
     3      3      4   2
     4      4      5   1
     5      5      6   2
     6      6      1   1
     7      4      7   1
     8      7      8   1
     9      8      9   2
    10      9     10   1
    11     10     11   2
    12     11     12   1
    13     12     13   2
    14     13      8   1
    15     14     15   1
    16      1     14   1
    17     16     17   2
    18     17     18   1
    19     18     19   2
    20     19     20   1
    21     20     21   1
    22     21     16   1
    23     20     22   2
    24     22     23   1
    25     23     24   1
    26     24     21   2
    27      7     16   1
    28      2     25   1
    29      3     26   1
    30      5     27   1
    31      6     28   1
    32      9     29   1
    33     10     30   1
    34     11     31   1
    35     12     32   1
    36     13     33   1
    37     15     34   1
    38     15     35   1
    39     15     36   1
    40     17     37   1
    41     18     38   1
    42     39     40   2
    43     40     41   1
    44     41     42   2
    45     42     43   1
    46     43     44   2
    47     44     39   1
    48     45     46   2
    49     45     47   1
    50     42     45   1
    51     40     48   1
    52     41     49   1
    53     43     50   1
    54     44     51   1
    55     19     39   1
