# Produced with molli package
@<TRIPOS>MOLECULE
E_8_O
48 52 0 0 0
SMALL
USER_CHARGES

@<TRIPOS>ATOM
     1 C      -5.968060     4.366179     0.260682 C          1 UNL1 0.000
     2 C      -6.544360     3.245973    -0.332978 C          1 UNL1 0.000
     3 C      -5.891223     2.005033    -0.277369 C          1 UNL1 0.000
     4 C      -4.666497     1.850330     0.395367 C          1 UNL1 0.000
     5 C      -4.104186     3.001745     0.979217 C          1 UNL1 0.000
     6 C      -4.752319     4.239161     0.923405 C          1 UNL1 0.000
     7 N      -3.992253     0.575304     0.471336 N          1 UNL1 0.000
     8 C      -4.678348    -0.694638     0.563129 C          1 UNL1 0.000
     9 C      -5.963346    -0.812641     1.119763 C          1 UNL1 0.000
    10 C      -6.613962    -2.050330     1.195590 C          1 UNL1 0.000
    11 C      -5.983339    -3.203640     0.738453 C          1 UNL1 0.000
    12 C      -4.700959    -3.121763     0.208591 C          1 UNL1 0.000
    13 C      -4.058277    -1.882597     0.121723 C          1 UNL1 0.000
    14 O      -6.537431     5.608193     0.300747 O          1 UNL1 0.000
    15 C      -7.195104     5.997041    -0.900052 C          1 UNL1 0.000
    16 C      -2.560037     0.572470     0.566612 C          1 UNL1 0.000
    17 C      -1.773910     0.789680    -0.590973 C          1 UNL1 0.000
    18 C      -0.360896     0.772433    -0.592086 C          1 UNL1 0.000
    19 C       0.414729     0.539758     0.566410 C          1 UNL1 0.000
    20 C      -0.313755     0.342545     1.772214 C          1 UNL1 0.000
    21 C      -1.826659     0.358839     1.775495 C          1 UNL1 0.000
    22 N       0.200155     0.126665     2.999484 N          1 UNL1 0.000
    23 S      -1.077487     0.018163     4.046828 S          1 UNL1 0.000
    24 N      -2.348541     0.178811     3.000241 N          1 UNL1 0.000
    25 H      -7.510095     3.302229    -0.824124 H          1 UNL1 0.000
    26 H      -6.356081     1.156460    -0.773399 H          1 UNL1 0.000
    27 H      -3.162444     2.952179     1.518925 H          1 UNL1 0.000
    28 H      -4.301311     5.105397     1.400420 H          1 UNL1 0.000
    29 H      -6.469447     0.056709     1.531082 H          1 UNL1 0.000
    30 H      -7.610381    -2.111173     1.625477 H          1 UNL1 0.000
    31 H      -6.485580    -4.165006     0.805205 H          1 UNL1 0.000
    32 H      -4.195496    -4.019326    -0.138113 H          1 UNL1 0.000
    33 H      -3.061866    -1.861709    -0.310605 H          1 UNL1 0.000
    34 H      -6.538038     5.874204    -1.767946 H          1 UNL1 0.000
    35 H      -7.440794     7.060057    -0.813275 H          1 UNL1 0.000
    36 H      -8.133155     5.451303    -1.036877 H          1 UNL1 0.000
    37 H      -2.287603     0.962984    -1.538271 H          1 UNL1 0.000
    38 H       0.156644     0.943625    -1.537395 H          1 UNL1 0.000
    39 C       1.868301     0.515354     0.548790 C          1 UNL1 0.000
    40 N       2.469096     1.710393     0.329915 N          1 UNL1 0.000
    41 C       3.820145     1.730204     0.321506 C          1 UNL1 0.000
    42 C       4.609809     0.603895     0.481096 C          1 UNL1 0.000
    43 C       3.978582    -0.618780     0.669401 C          1 UNL1 0.000
    44 C       2.587927    -0.667075     0.710818 C          1 UNL1 0.000
    45 H       4.266223     2.710321     0.180156 H          1 UNL1 0.000
    46 H       5.691158     0.678877     0.461061 H          1 UNL1 0.000
    47 H       4.561611    -1.527053     0.790982 H          1 UNL1 0.000
    48 H       2.077266    -1.611863     0.865963 H          1 UNL1 0.000
@<TRIPOS>BOND
     1      1      2   2
     2      2      3   1
     3      3      4   2
     4      4      5   1
     5      5      6   2
     6      6      1   1
     7      4      7   1
     8      7      8   1
     9      8      9   2
    10      9     10   1
    11     10     11   2
    12     11     12   1
    13     12     13   2
    14     13      8   1
    15     14     15   1
    16      1     14   1
    17     16     17   2
    18     17     18   1
    19     18     19   2
    20     19     20   1
    21     20     21   1
    22     21     16   1
    23     20     22   2
    24     22     23   1
    25     23     24   1
    26     24     21   2
    27      7     16   1
    28      2     25   1
    29      3     26   1
    30      5     27   1
    31      6     28   1
    32      9     29   1
    33     10     30   1
    34     11     31   1
    35     12     32   1
    36     13     33   1
    37     15     34   1
    38     15     35   1
    39     15     36   1
    40     17     37   1
    41     18     38   1
    42     39     40   2
    43     40     41   1
    44     41     42   2
    45     42     43   1
    46     43     44   2
    47     44     39   1
    48     41     45   1
    49     42     46   1
    50     43     47   1
    51     44     48   1
    52     19     39   1
