# Produced with molli package
@<TRIPOS>MOLECULE
E_9_M
49 52 0 0 0
SMALL
USER_CHARGES

@<TRIPOS>ATOM
     1 C      -5.139181     4.395257    -1.004045 C          1 UNL1 0.000
     2 C      -5.778235     3.263260    -1.499479 C          1 UNL1 0.000
     3 C      -5.133996     2.015183    -1.464367 C          1 UNL1 0.000
     4 C      -3.865082     1.854147    -0.881729 C          1 UNL1 0.000
     5 C      -3.227762     3.028122    -0.428515 C          1 UNL1 0.000
     6 C      -3.858444     4.276763    -0.478737 C          1 UNL1 0.000
     7 N      -3.215752     0.562564    -0.756781 N          1 UNL1 0.000
     8 C      -3.911595    -0.709528    -0.680468 C          1 UNL1 0.000
     9 C      -5.241599    -0.822941    -0.239155 C          1 UNL1 0.000
    10 C      -5.910376    -2.055008    -0.226887 C          1 UNL1 0.000
    11 C      -5.247812    -3.217293    -0.606106 C          1 UNL1 0.000
    12 C      -3.913556    -3.150056    -0.984914 C          1 UNL1 0.000
    13 C      -3.257829    -1.914144    -1.021725 C          1 UNL1 0.000
    14 O      -5.719790     5.627724    -0.901759 O          1 UNL1 0.000
    15 C      -6.404716     6.063866    -2.070673 C          1 UNL1 0.000
    16 C      -1.775553     0.543154    -0.721543 C          1 UNL1 0.000
    17 C      -1.046013     0.602906    -1.917733 C          1 UNL1 0.000
    18 C       0.345668     0.569111    -1.891197 C          1 UNL1 0.000
    19 C       1.016406     0.507673    -0.668447 C          1 UNL1 0.000
    20 C       0.309042     0.471522     0.544411 C          1 UNL1 0.000
    21 C      -1.092743     0.469260     0.505035 C          1 UNL1 0.000
    22 H      -6.791193     3.311445    -1.884986 H          1 UNL1 0.000
    23 H      -5.655581     1.167713    -1.900604 H          1 UNL1 0.000
    24 H      -2.231645     2.992525     0.003460 H          1 UNL1 0.000
    25 H      -3.346790     5.154639    -0.093225 H          1 UNL1 0.000
    26 H      -5.785495     0.045239     0.121425 H          1 UNL1 0.000
    27 H      -6.949725    -2.102938     0.088106 H          1 UNL1 0.000
    28 H      -5.764589    -4.173127    -0.593423 H          1 UNL1 0.000
    29 H      -3.376669    -4.054640    -1.258757 H          1 UNL1 0.000
    30 H      -2.217793    -1.914979    -1.336853 H          1 UNL1 0.000
    31 H      -5.696936     6.216319    -2.891771 H          1 UNL1 0.000
    32 H      -6.867807     7.028552    -1.839620 H          1 UNL1 0.000
    33 H      -7.206574     5.384186    -2.370775 H          1 UNL1 0.000
    34 H      -1.571232     0.655799    -2.868058 H          1 UNL1 0.000
    35 H       0.908387     0.597053    -2.820366 H          1 UNL1 0.000
    36 H       2.105014     0.500556    -0.662261 H          1 UNL1 0.000
    37 H      -1.666233     0.434929     1.429187 H          1 UNL1 0.000
    38 C       1.034086     0.465314     1.817374 C          1 UNL1 0.000
    39 C       1.235865     1.658862     2.528525 C          1 UNL1 0.000
    40 C       1.978358     1.669841     3.713720 C          1 UNL1 0.000
    41 C       2.526773     0.482752     4.206972 C          1 UNL1 0.000
    42 C       2.318999    -0.714584     3.515710 C          1 UNL1 0.000
    43 C       1.578090    -0.721374     2.329284 C          1 UNL1 0.000
    44 C       3.308785     0.494734     5.408218 C          1 UNL1 0.000
    45 N       3.948563     0.505033     6.377172 N          1 UNL1 0.000
    46 H       0.826710     2.594075     2.149235 H          1 UNL1 0.000
    47 H       2.131598     2.610840     4.239026 H          1 UNL1 0.000
    48 H       2.737531    -1.647725     3.888093 H          1 UNL1 0.000
    49 H       1.432181    -1.659841     1.797126 H          1 UNL1 0.000
@<TRIPOS>BOND
     1      1      2   2
     2      2      3   1
     3      3      4   2
     4      4      5   1
     5      5      6   2
     6      6      1   1
     7      4      7   1
     8      7      8   1
     9      8      9   2
    10      9     10   1
    11     10     11   2
    12     11     12   1
    13     12     13   2
    14     13      8   1
    15     14     15   1
    16      1     14   1
    17     16     17   2
    18     17     18   1
    19     18     19   2
    20     19     20   1
    21     20     21   2
    22     21     16   1
    23      7     16   1
    24      2     22   1
    25      3     23   1
    26      5     24   1
    27      6     25   1
    28      9     26   1
    29     10     27   1
    30     11     28   1
    31     12     29   1
    32     13     30   1
    33     15     31   1
    34     15     32   1
    35     15     33   1
    36     17     34   1
    37     18     35   1
    38     19     36   1
    39     21     37   1
    40     38     39   2
    41     39     40   1
    42     40     41   2
    43     41     42   1
    44     42     43   2
    45     43     38   1
    46     44     45   3
    47     41     44   1
    48     39     46   1
    49     40     47   1
    50     42     48   1
    51     43     49   1
    52     20     38   1
