# Produced with molli package
@<TRIPOS>MOLECULE
E_9_Q
46 49 0 0 0
SMALL
USER_CHARGES

@<TRIPOS>ATOM
     1 C      -5.242445     4.402772    -0.522949 C          1 UNL1 0.000
     2 C      -5.852496     3.269378     0.000547 C          1 UNL1 0.000
     3 C      -5.191403     2.037927    -0.052198 C          1 UNL1 0.000
     4 C      -3.910341     1.918337    -0.624542 C          1 UNL1 0.000
     5 C      -3.292463     3.096900    -1.085346 C          1 UNL1 0.000
     6 C      -3.951360     4.330252    -1.035256 C          1 UNL1 0.000
     7 N      -3.252218     0.638064    -0.728331 N          1 UNL1 0.000
     8 C      -3.979341    -0.598348    -0.901913 C          1 UNL1 0.000
     9 C      -5.145251    -0.666115    -1.683565 C          1 UNL1 0.000
    10 C      -5.832488    -1.872672    -1.850745 C          1 UNL1 0.000
    11 C      -5.361324    -3.035960    -1.247128 C          1 UNL1 0.000
    12 C      -4.200767    -2.996412    -0.480548 C          1 UNL1 0.000
    13 C      -3.515137    -1.790433    -0.313509 C          1 UNL1 0.000
    14 O      -5.917140     5.590318    -0.452724 O          1 UNL1 0.000
    15 C      -6.289066     6.038374    -1.756770 C          1 UNL1 0.000
    16 C      -1.816868     0.575757    -0.765726 C          1 UNL1 0.000
    17 C      -1.159273     0.258373    -1.963178 C          1 UNL1 0.000
    18 C       0.227248     0.138989    -1.994250 C          1 UNL1 0.000
    19 C       0.963169     0.289436    -0.817911 C          1 UNL1 0.000
    20 C       0.329656     0.582873     0.403527 C          1 UNL1 0.000
    21 C      -1.063823     0.765611     0.403700 C          1 UNL1 0.000
    22 H      -6.842117     3.337973     0.442564 H          1 UNL1 0.000
    23 H      -5.687167     1.168365     0.372482 H          1 UNL1 0.000
    24 H      -2.292418     3.068728    -1.510385 H          1 UNL1 0.000
    25 H      -3.447907     5.223541    -1.392068 H          1 UNL1 0.000
    26 H      -5.518882     0.220149    -2.190139 H          1 UNL1 0.000
    27 H      -6.732865    -1.902632    -2.458634 H          1 UNL1 0.000
    28 H      -5.895338    -3.973477    -1.377457 H          1 UNL1 0.000
    29 H      -3.826269    -3.901057    -0.008783 H          1 UNL1 0.000
    30 H      -2.618496    -1.786654     0.301030 H          1 UNL1 0.000
    31 H      -5.412466     6.315061    -2.351779 H          1 UNL1 0.000
    32 H      -6.910269     6.931483    -1.639590 H          1 UNL1 0.000
    33 H      -6.882832     5.280085    -2.280188 H          1 UNL1 0.000
    34 H      -1.735770     0.113661    -2.873605 H          1 UNL1 0.000
    35 H       0.732455    -0.086541    -2.929736 H          1 UNL1 0.000
    36 H       2.045229     0.176225    -0.860422 H          1 UNL1 0.000
    37 H      -1.577946     0.998585     1.335001 H          1 UNL1 0.000
    38 C       1.091927     0.637840     1.654049 C          1 UNL1 0.000
    39 N       0.966799     1.761924     2.404137 N          1 UNL1 0.000
    40 C       1.676877     1.784008     3.556882 C          1 UNL1 0.000
    41 C       2.474072     0.727862     3.965356 C          1 UNL1 0.000
    42 N       2.602217    -0.403130     3.238819 N          1 UNL1 0.000
    43 C       1.895046    -0.420874     2.081833 C          1 UNL1 0.000
    44 H       1.587513     2.686391     4.151151 H          1 UNL1 0.000
    45 H       3.032743     0.762981     4.893442 H          1 UNL1 0.000
    46 H       1.980263    -1.335506     1.503403 H          1 UNL1 0.000
@<TRIPOS>BOND
     1      1      2   2
     2      2      3   1
     3      3      4   2
     4      4      5   1
     5      5      6   2
     6      6      1   1
     7      4      7   1
     8      7      8   1
     9      8      9   2
    10      9     10   1
    11     10     11   2
    12     11     12   1
    13     12     13   2
    14     13      8   1
    15     14     15   1
    16      1     14   1
    17     16     17   2
    18     17     18   1
    19     18     19   2
    20     19     20   1
    21     20     21   2
    22     21     16   1
    23      7     16   1
    24      2     22   1
    25      3     23   1
    26      5     24   1
    27      6     25   1
    28      9     26   1
    29     10     27   1
    30     11     28   1
    31     12     29   1
    32     13     30   1
    33     15     31   1
    34     15     32   1
    35     15     33   1
    36     17     34   1
    37     18     35   1
    38     19     36   1
    39     21     37   1
    40     38     39   2
    41     39     40   1
    42     40     41   2
    43     41     42   1
    44     42     43   2
    45     43     38   1
    46     40     44   1
    47     41     45   1
    48     43     46   1
    49     20     38   1
