# Produced with molli package
@<TRIPOS>MOLECULE
E_9_S
53 56 0 0 0
SMALL
USER_CHARGES

@<TRIPOS>ATOM
     1 C      -5.220207     4.354672    -0.867393 C          1 UNL1 0.000
     2 C      -5.833151     3.222141    -1.395856 C          1 UNL1 0.000
     3 C      -5.175123     1.982307    -1.358701 C          1 UNL1 0.000
     4 C      -3.912186     1.836659    -0.758260 C          1 UNL1 0.000
     5 C      -3.310709     3.005928    -0.249863 C          1 UNL1 0.000
     6 C      -3.960270     4.243999    -0.291922 C          1 UNL1 0.000
     7 N      -3.231524     0.560336    -0.679030 N          1 UNL1 0.000
     8 C      -3.904638    -0.720909    -0.608920 C          1 UNL1 0.000
     9 C      -5.201483    -0.861468    -0.084504 C          1 UNL1 0.000
    10 C      -5.848915    -2.103674    -0.055241 C          1 UNL1 0.000
    11 C      -5.199208    -3.244580    -0.515262 C          1 UNL1 0.000
    12 C      -3.899037    -3.146299    -0.994804 C          1 UNL1 0.000
    13 C      -3.262190    -1.901488    -1.039360 C          1 UNL1 0.000
    14 O      -5.801956     5.589985    -0.805581 O          1 UNL1 0.000
    15 C      -6.448122     5.990256    -2.009571 C          1 UNL1 0.000
    16 C      -1.792209     0.569594    -0.692245 C          1 UNL1 0.000
    17 C      -1.102637     0.706374    -1.905495 C          1 UNL1 0.000
    18 C       0.289898     0.709111    -1.922916 C          1 UNL1 0.000
    19 C       1.000618     0.611507    -0.725086 C          1 UNL1 0.000
    20 C       0.332139     0.500804     0.504848 C          1 UNL1 0.000
    21 C      -1.069255     0.456121     0.507008 C          1 UNL1 0.000
    22 H      -6.831064     3.269219    -1.819234 H          1 UNL1 0.000
    23 H      -5.671076     1.129722    -1.815253 H          1 UNL1 0.000
    24 H      -2.328251     2.972033     0.212731 H          1 UNL1 0.000
    25 H      -3.475834     5.122090     0.126795 H          1 UNL1 0.000
    26 H      -5.728515    -0.005937     0.328935 H          1 UNL1 0.000
    27 H      -6.860484    -2.177032     0.335820 H          1 UNL1 0.000
    28 H      -5.699986    -4.208662    -0.490074 H          1 UNL1 0.000
    29 H      -3.374786    -4.033743    -1.339778 H          1 UNL1 0.000
    30 H      -2.249587    -1.872308    -1.432963 H          1 UNL1 0.000
    31 H      -5.763702     5.926158    -2.862406 H          1 UNL1 0.000
    32 H      -6.743679     7.037767    -1.893626 H          1 UNL1 0.000
    33 H      -7.357279     5.410392    -2.192561 H          1 UNL1 0.000
    34 H      -1.658660     0.793760    -2.835536 H          1 UNL1 0.000
    35 H       0.821725     0.798977    -2.866282 H          1 UNL1 0.000
    36 H       2.088481     0.640325    -0.751119 H          1 UNL1 0.000
    37 H      -1.611714     0.368608     1.446281 H          1 UNL1 0.000
    38 C       1.089561     0.483274     1.758027 C          1 UNL1 0.000
    39 C       1.316431     1.673050     2.462903 C          1 UNL1 0.000
    40 C       2.079895     1.675658     3.634000 C          1 UNL1 0.000
    41 C       2.629915     0.486079     4.129886 C          1 UNL1 0.000
    42 C       2.384470    -0.709614     3.445986 C          1 UNL1 0.000
    43 C       1.625729    -0.706879     2.266812 C          1 UNL1 0.000
    44 C       3.460643     0.565549     5.371833 C          1 UNL1 0.000
    45 C       4.123787    -0.671877     5.921170 C          1 UNL1 0.000
    46 O       3.580024     1.641639     5.952921 O          1 UNL1 0.000
    47 H       0.908414     2.612995     2.095005 H          1 UNL1 0.000
    48 H       2.247506     2.617994     4.153436 H          1 UNL1 0.000
    49 H       2.768465    -1.661807     3.796982 H          1 UNL1 0.000
    50 H       1.456857    -1.644550     1.739771 H          1 UNL1 0.000
    51 H       5.060377    -0.378050     6.406451 H          1 UNL1 0.000
    52 H       4.389964    -1.388235     5.143371 H          1 UNL1 0.000
    53 H       3.466479    -1.138278     6.658994 H          1 UNL1 0.000
@<TRIPOS>BOND
     1      1      2   2
     2      2      3   1
     3      3      4   2
     4      4      5   1
     5      5      6   2
     6      6      1   1
     7      4      7   1
     8      7      8   1
     9      8      9   2
    10      9     10   1
    11     10     11   2
    12     11     12   1
    13     12     13   2
    14     13      8   1
    15     14     15   1
    16      1     14   1
    17     16     17   2
    18     17     18   1
    19     18     19   2
    20     19     20   1
    21     20     21   2
    22     21     16   1
    23      7     16   1
    24      2     22   1
    25      3     23   1
    26      5     24   1
    27      6     25   1
    28      9     26   1
    29     10     27   1
    30     11     28   1
    31     12     29   1
    32     13     30   1
    33     15     31   1
    34     15     32   1
    35     15     33   1
    36     17     34   1
    37     18     35   1
    38     19     36   1
    39     21     37   1
    40     38     39   2
    41     39     40   1
    42     40     41   2
    43     41     42   1
    44     42     43   2
    45     43     38   1
    46     41     44   1
    47     44     45   1
    48     44     46   2
    49     39     47   1
    50     40     48   1
    51     42     49   1
    52     43     50   1
    53     45     51   1
    54     45     52   1
    55     45     53   1
    56     20     38   1
