# Produced with molli package
@<TRIPOS>MOLECULE
E_9_N
45 48 0 0 0
SMALL
USER_CHARGES

@<TRIPOS>ATOM
     1 C      -5.207824     4.439892    -1.102716 C          1 UNL1 0.000
     2 C      -5.720391     3.324990    -1.764194 C          1 UNL1 0.000
     3 C      -5.077075     2.083385    -1.656932 C          1 UNL1 0.000
     4 C      -3.915256     1.931615    -0.882850 C          1 UNL1 0.000
     5 C      -3.421863     3.066723    -0.215440 C          1 UNL1 0.000
     6 C      -4.068350     4.301113    -0.314127 C          1 UNL1 0.000
     7 N      -3.222624     0.669328    -0.795489 N          1 UNL1 0.000
     8 C      -3.910203    -0.595658    -0.713866 C          1 UNL1 0.000
     9 C      -5.172413    -0.708755    -0.104294 C          1 UNL1 0.000
    10 C      -5.837905    -1.937317    -0.035933 C          1 UNL1 0.000
    11 C      -5.250137    -3.080993    -0.568888 C          1 UNL1 0.000
    12 C      -3.994526    -2.998966    -1.162647 C          1 UNL1 0.000
    13 C      -3.330167    -1.770279    -1.229651 C          1 UNL1 0.000
    14 O      -5.740242     5.698692    -1.131203 O          1 UNL1 0.000
    15 C      -6.540476     6.007406    -2.265903 C          1 UNL1 0.000
    16 C      -1.785542     0.694805    -0.787682 C          1 UNL1 0.000
    17 C      -1.081510     1.090378    -1.935110 C          1 UNL1 0.000
    18 C       0.309449     1.180842    -1.914512 C          1 UNL1 0.000
    19 C       1.004833     0.913001    -0.734392 C          1 UNL1 0.000
    20 C       0.315181     0.528754     0.421674 C          1 UNL1 0.000
    21 C      -1.077592     0.392328     0.385771 C          1 UNL1 0.000
    22 H      -6.620586     3.386064    -2.366440 H          1 UNL1 0.000
    23 H      -5.481594     1.236703    -2.206522 H          1 UNL1 0.000
    24 H      -2.532201     2.999717     0.405595 H          1 UNL1 0.000
    25 H      -3.669628     5.160891     0.218101 H          1 UNL1 0.000
    26 H      -5.645824     0.160455     0.345786 H          1 UNL1 0.000
    27 H      -6.813297    -1.998423     0.439679 H          1 UNL1 0.000
    28 H      -5.767339    -4.035454    -0.517036 H          1 UNL1 0.000
    29 H      -3.528828    -3.888818    -1.578283 H          1 UNL1 0.000
    30 H      -2.356694    -1.738618    -1.712629 H          1 UNL1 0.000
    31 H      -6.022363     5.761412    -3.199366 H          1 UNL1 0.000
    32 H      -6.722067     7.086564    -2.260964 H          1 UNL1 0.000
    33 H      -7.510814     5.504968    -2.208780 H          1 UNL1 0.000
    34 H      -1.624830     1.326551    -2.847224 H          1 UNL1 0.000
    35 H       0.848195     1.479134    -2.809511 H          1 UNL1 0.000
    36 H       2.088011     1.013866    -0.721258 H          1 UNL1 0.000
    37 H      -1.628732     0.119680     1.282400 H          1 UNL1 0.000
    38 C       1.038435     0.355656     1.671959 C          1 UNL1 0.000
    39 C       1.010124    -0.828685     2.378411 C          1 UNL1 0.000
    40 S       1.932008    -0.748479     3.820198 S          1 UNL1 0.000
    41 C       2.370886     0.876055     3.516284 C          1 UNL1 0.000
    42 C       1.834531     1.342888     2.336141 C          1 UNL1 0.000
    43 H       0.497227    -1.746785     2.122927 H          1 UNL1 0.000
    44 H       2.997048     1.412444     4.215703 H          1 UNL1 0.000
    45 H       1.990095     2.351640     1.973687 H          1 UNL1 0.000
@<TRIPOS>BOND
     1      1      2   2
     2      2      3   1
     3      3      4   2
     4      4      5   1
     5      5      6   2
     6      6      1   1
     7      4      7   1
     8      7      8   1
     9      8      9   2
    10      9     10   1
    11     10     11   2
    12     11     12   1
    13     12     13   2
    14     13      8   1
    15     14     15   1
    16      1     14   1
    17     16     17   2
    18     17     18   1
    19     18     19   2
    20     19     20   1
    21     20     21   2
    22     21     16   1
    23      7     16   1
    24      2     22   1
    25      3     23   1
    26      5     24   1
    27      6     25   1
    28      9     26   1
    29     10     27   1
    30     11     28   1
    31     12     29   1
    32     13     30   1
    33     15     31   1
    34     15     32   1
    35     15     33   1
    36     17     34   1
    37     18     35   1
    38     19     36   1
    39     21     37   1
    40     38     39   2
    41     39     40   1
    42     40     41   1
    43     41     42   2
    44     42     38   1
    45     39     43   1
    46     41     44   1
    47     42     45   1
    48     20     38   1
