# Produced with molli package
@<TRIPOS>MOLECULE
E_9_K
50 53 0 0 0
SMALL
USER_CHARGES

@<TRIPOS>ATOM
     1 C      -5.182907     4.282449    -0.652601 C          1 UNL1 0.000
     2 C      -5.783590     3.159270    -0.096564 C          1 UNL1 0.000
     3 C      -5.110490     1.931405    -0.102024 C          1 UNL1 0.000
     4 C      -3.830563     1.800122    -0.671056 C          1 UNL1 0.000
     5 C      -3.222158     2.974341    -1.161467 C          1 UNL1 0.000
     6 C      -3.887759     4.204765    -1.150320 C          1 UNL1 0.000
     7 N      -3.145392     0.527528    -0.728780 N          1 UNL1 0.000
     8 C      -3.822540    -0.749040    -0.834772 C          1 UNL1 0.000
     9 C      -5.081526    -0.881197    -1.446302 C          1 UNL1 0.000
    10 C      -5.727118    -2.121424    -1.526857 C          1 UNL1 0.000
    11 C      -5.114446    -3.265095    -1.023889 C          1 UNL1 0.000
    12 C      -3.853784    -3.171520    -0.446686 C          1 UNL1 0.000
    13 C      -3.217403    -1.929606    -0.354991 C          1 UNL1 0.000
    14 O      -5.875422     5.461227    -0.624556 O          1 UNL1 0.000
    15 C      -6.155215     5.924977    -1.946234 C          1 UNL1 0.000
    16 C      -1.707084     0.525147    -0.728991 C          1 UNL1 0.000
    17 C      -1.002965     0.360105    -1.930056 C          1 UNL1 0.000
    18 C       0.388895     0.326199    -1.926449 C          1 UNL1 0.000
    19 C       1.083043     0.415613    -0.718429 C          1 UNL1 0.000
    20 C       0.400451     0.558048     0.501354 C          1 UNL1 0.000
    21 C      -0.999567     0.643762     0.478473 C          1 UNL1 0.000
    22 H      -6.777550     3.233034     0.335411 H          1 UNL1 0.000
    23 H      -5.600444     1.077713     0.359158 H          1 UNL1 0.000
    24 H      -2.218884     2.948544    -1.578321 H          1 UNL1 0.000
    25 H      -3.383411     5.090055    -1.525246 H          1 UNL1 0.000
    26 H      -5.575324    -0.020728    -1.889498 H          1 UNL1 0.000
    27 H      -6.707503    -2.191671    -1.990933 H          1 UNL1 0.000
    28 H      -5.613881    -4.228036    -1.089113 H          1 UNL1 0.000
    29 H      -3.360625    -4.060873    -0.062964 H          1 UNL1 0.000
    30 H      -2.237549    -1.900367     0.114123 H          1 UNL1 0.000
    31 H      -5.244159     6.247679    -2.460677 H          1 UNL1 0.000
    32 H      -6.817396     6.792107    -1.863863 H          1 UNL1 0.000
    33 H      -6.674514     5.157720    -2.532075 H          1 UNL1 0.000
    34 H      -1.546838     0.267278    -2.866794 H          1 UNL1 0.000
    35 H       0.932906     0.214693    -2.860587 H          1 UNL1 0.000
    36 H       2.170467     0.365159    -0.730782 H          1 UNL1 0.000
    37 H      -1.557517     0.745536     1.407279 H          1 UNL1 0.000
    38 C       1.135710     0.558592     1.771138 C          1 UNL1 0.000
    39 C       1.171751     1.697429     2.592100 C          1 UNL1 0.000
    40 C       1.882640     1.689939     3.796875 C          1 UNL1 0.000
    41 C       2.562800     0.529848     4.185335 C          1 UNL1 0.000
    42 C       2.533655    -0.618996     3.389881 C          1 UNL1 0.000
    43 C       1.820056    -0.597959     2.189486 C          1 UNL1 0.000
    44 N       3.318158     0.519509     5.438463 N          1 UNL1 0.000
    45 O       2.988939     1.329052     6.314572 O          1 UNL1 0.000
    46 O       4.243368    -0.300892     5.541934 O          1 UNL1 0.000
    47 H       0.650826     2.604313     2.287953 H          1 UNL1 0.000
    48 H       1.902952     2.587904     4.410602 H          1 UNL1 0.000
    49 H       3.050992    -1.528343     3.688560 H          1 UNL1 0.000
    50 H       1.790587    -1.497827     1.575995 H          1 UNL1 0.000
@<TRIPOS>BOND
     1      1      2   2
     2      2      3   1
     3      3      4   2
     4      4      5   1
     5      5      6   2
     6      6      1   1
     7      4      7   1
     8      7      8   1
     9      8      9   2
    10      9     10   1
    11     10     11   2
    12     11     12   1
    13     12     13   2
    14     13      8   1
    15     14     15   1
    16      1     14   1
    17     16     17   2
    18     17     18   1
    19     18     19   2
    20     19     20   1
    21     20     21   2
    22     21     16   1
    23      7     16   1
    24      2     22   1
    25      3     23   1
    26      5     24   1
    27      6     25   1
    28      9     26   1
    29     10     27   1
    30     11     28   1
    31     12     29   1
    32     13     30   1
    33     15     31   1
    34     15     32   1
    35     15     33   1
    36     17     34   1
    37     18     35   1
    38     19     36   1
    39     21     37   1
    40     38     39   2
    41     39     40   1
    42     40     41   2
    43     41     42   1
    44     42     43   2
    45     43     38   1
    46     44     45   2
    47     44     46   1
    48     41     44   1
    49     39     47   1
    50     40     48   1
    51     42     49   1
    52     43     50   1
    53     20     38   1
