# Produced with molli package
@<TRIPOS>MOLECULE
E_9_T
51 54 0 0 0
SMALL
USER_CHARGES

@<TRIPOS>ATOM
     1 C      -5.078989     4.374911    -1.044508 C          1 UNL1 0.000
     2 C      -5.643660     3.262557    -1.663370 C          1 UNL1 0.000
     3 C      -5.020878     2.007951    -1.569162 C          1 UNL1 0.000
     4 C      -3.831307     1.834234    -0.840661 C          1 UNL1 0.000
     5 C      -3.278702     2.973588    -0.228959 C          1 UNL1 0.000
     6 C      -3.900004     4.222601    -0.318942 C          1 UNL1 0.000
     7 N      -3.173144     0.551713    -0.746207 N          1 UNL1 0.000
     8 C      -3.880688    -0.707068    -0.682539 C          1 UNL1 0.000
     9 C      -5.178280    -0.801878    -0.147609 C          1 UNL1 0.000
    10 C      -5.860369    -2.023564    -0.101295 C          1 UNL1 0.000
    11 C      -5.251891    -3.183634    -0.569809 C          1 UNL1 0.000
    12 C      -3.958377    -3.125062    -1.076855 C          1 UNL1 0.000
    13 C      -3.281619    -1.902084    -1.128524 C          1 UNL1 0.000
    14 O      -5.587846     5.643506    -1.055209 O          1 UNL1 0.000
    15 C      -6.478936     5.950233    -2.120119 C          1 UNL1 0.000
    16 C      -1.735286     0.539131    -0.740446 C          1 UNL1 0.000
    17 C      -1.025612     0.706379    -1.938090 C          1 UNL1 0.000
    18 C       0.367517     0.709543    -1.933215 C          1 UNL1 0.000
    19 C       1.058721     0.585116    -0.726747 C          1 UNL1 0.000
    20 C       0.369554     0.445925     0.488293 C          1 UNL1 0.000
    21 C      -1.031585     0.394365     0.465576 C          1 UNL1 0.000
    22 H      -6.571598     3.332390    -2.221695 H          1 UNL1 0.000
    23 H      -5.470509     1.167452    -2.091599 H          1 UNL1 0.000
    24 H      -2.358938     2.904556     0.345954 H          1 UNL1 0.000
    25 H      -3.452756     5.081861     0.173434 H          1 UNL1 0.000
    26 H      -5.671696     0.075370     0.262205 H          1 UNL1 0.000
    27 H      -6.865721    -2.066027     0.309989 H          1 UNL1 0.000
    28 H      -5.779852    -4.132657    -0.531776 H          1 UNL1 0.000
    29 H      -3.470634    -4.027864    -1.434775 H          1 UNL1 0.000
    30 H      -2.275442    -1.898373    -1.540145 H          1 UNL1 0.000
    31 H      -6.033315     5.711517    -3.091841 H          1 UNL1 0.000
    32 H      -6.667185     7.028091    -2.095627 H          1 UNL1 0.000
    33 H      -7.439001     5.441753    -1.989520 H          1 UNL1 0.000
    34 H      -1.565635     0.822749    -2.874223 H          1 UNL1 0.000
    35 H       0.914815     0.826427    -2.864562 H          1 UNL1 0.000
    36 H       2.146686     0.620987    -0.731408 H          1 UNL1 0.000
    37 H      -1.587307     0.284671     1.394670 H          1 UNL1 0.000
    38 C       1.101286     0.421953     1.756341 C          1 UNL1 0.000
    39 C       1.234667     1.595014     2.514477 C          1 UNL1 0.000
    40 C       1.957762     1.598980     3.709741 C          1 UNL1 0.000
    41 C       2.569605     0.428685     4.168436 C          1 UNL1 0.000
    42 C       2.420410    -0.750479     3.428728 C          1 UNL1 0.000
    43 C       1.697820    -0.752265     2.231200 C          1 UNL1 0.000
    44 C       3.333753     0.421764     5.458899 C          1 UNL1 0.000
    45 H       0.778727     2.520549     2.168077 H          1 UNL1 0.000
    46 H       2.043932     2.524875     4.273723 H          1 UNL1 0.000
    47 H       2.870790    -1.676830     3.778042 H          1 UNL1 0.000
    48 H       1.601683    -1.678058     1.668256 H          1 UNL1 0.000
    49 H       4.238067    -0.188804     5.366841 H          1 UNL1 0.000
    50 H       2.709652     0.019903     6.262782 H          1 UNL1 0.000
    51 H       3.651474     1.432665     5.735958 H          1 UNL1 0.000
@<TRIPOS>BOND
     1      1      2   2
     2      2      3   1
     3      3      4   2
     4      4      5   1
     5      5      6   2
     6      6      1   1
     7      4      7   1
     8      7      8   1
     9      8      9   2
    10      9     10   1
    11     10     11   2
    12     11     12   1
    13     12     13   2
    14     13      8   1
    15     14     15   1
    16      1     14   1
    17     16     17   2
    18     17     18   1
    19     18     19   2
    20     19     20   1
    21     20     21   2
    22     21     16   1
    23      7     16   1
    24      2     22   1
    25      3     23   1
    26      5     24   1
    27      6     25   1
    28      9     26   1
    29     10     27   1
    30     11     28   1
    31     12     29   1
    32     13     30   1
    33     15     31   1
    34     15     32   1
    35     15     33   1
    36     17     34   1
    37     18     35   1
    38     19     36   1
    39     21     37   1
    40     38     39   2
    41     39     40   1
    42     40     41   2
    43     41     42   1
    44     42     43   2
    45     43     38   1
    46     41     44   1
    47     39     45   1
    48     40     46   1
    49     42     47   1
    50     43     48   1
    51     44     49   1
    52     44     50   1
    53     44     51   1
    54     20     38   1
