# Produced with molli package
@<TRIPOS>MOLECULE
E_9_O
47 50 0 0 0
SMALL
USER_CHARGES

@<TRIPOS>ATOM
     1 C      -5.160459     4.302546    -0.547630 C          1 UNL1 0.000
     2 C      -5.743948     3.190302     0.047495 C          1 UNL1 0.000
     3 C      -5.091301     1.954553    -0.000460 C          1 UNL1 0.000
     4 C      -3.843112     1.811705    -0.635649 C          1 UNL1 0.000
     5 C      -3.247378     2.969476    -1.170942 C          1 UNL1 0.000
     6 C      -3.899897     4.206464    -1.128638 C          1 UNL1 0.000
     7 N      -3.195188     0.526608    -0.732235 N          1 UNL1 0.000
     8 C      -3.936668    -0.705854    -0.866227 C          1 UNL1 0.000
     9 C      -5.128367    -0.772011    -1.608364 C          1 UNL1 0.000
    10 C      -5.833671    -1.972932    -1.735340 C          1 UNL1 0.000
    11 C      -5.355959    -3.132323    -1.129479 C          1 UNL1 0.000
    12 C      -4.171013    -3.094465    -0.400981 C          1 UNL1 0.000
    13 C      -3.467101    -1.894090    -0.274466 C          1 UNL1 0.000
    14 O      -5.829939     5.493354    -0.479735 O          1 UNL1 0.000
    15 C      -6.249112     5.915343    -1.777920 C          1 UNL1 0.000
    16 C      -1.759916     0.454765    -0.756759 C          1 UNL1 0.000
    17 C      -1.095366     0.059469    -1.926325 C          1 UNL1 0.000
    18 C       0.290640    -0.068771    -1.938082 C          1 UNL1 0.000
    19 C       1.018626     0.151918    -0.767128 C          1 UNL1 0.000
    20 C       0.379910     0.521836     0.430956 C          1 UNL1 0.000
    21 C      -1.013429     0.711084     0.404524 C          1 UNL1 0.000
    22 H      -6.707029     3.278809     0.541412 H          1 UNL1 0.000
    23 H      -5.564178     1.100429     0.478184 H          1 UNL1 0.000
    24 H      -2.272218     2.918288    -1.648629 H          1 UNL1 0.000
    25 H      -3.414207     5.084083    -1.543935 H          1 UNL1 0.000
    26 H      -5.509300     0.111482    -2.114394 H          1 UNL1 0.000
    27 H      -6.753712    -2.001162    -2.313028 H          1 UNL1 0.000
    28 H      -5.904357    -4.065337    -1.227861 H          1 UNL1 0.000
    29 H      -3.791647    -3.995682     0.073259 H          1 UNL1 0.000
    30 H      -2.551669    -1.890721     0.312190 H          1 UNL1 0.000
    31 H      -5.395585     6.201814    -2.400974 H          1 UNL1 0.000
    32 H      -6.885014     6.797181    -1.654139 H          1 UNL1 0.000
    33 H      -6.842288     5.138680    -2.274498 H          1 UNL1 0.000
    34 H      -1.665335    -0.139356    -2.830446 H          1 UNL1 0.000
    35 H       0.802209    -0.355796    -2.852789 H          1 UNL1 0.000
    36 H       2.099946     0.031800    -0.794974 H          1 UNL1 0.000
    37 H      -1.532984     1.001268     1.316619 H          1 UNL1 0.000
    38 C       1.130221     0.651608     1.690507 C          1 UNL1 0.000
    39 N       0.845024     1.737947     2.449886 N          1 UNL1 0.000
    40 C       1.498906     1.867899     3.625797 C          1 UNL1 0.000
    41 C       2.425492     0.955674     4.100946 C          1 UNL1 0.000
    42 C       2.703096    -0.159219     3.322419 C          1 UNL1 0.000
    43 C       2.051069    -0.314282     2.101867 C          1 UNL1 0.000
    44 H       1.245743     2.756129     4.197664 H          1 UNL1 0.000
    45 H       2.914023     1.107855     5.056533 H          1 UNL1 0.000
    46 H       3.413590    -0.906788     3.662965 H          1 UNL1 0.000
    47 H       2.243403    -1.193481     1.495033 H          1 UNL1 0.000
@<TRIPOS>BOND
     1      1      2   2
     2      2      3   1
     3      3      4   2
     4      4      5   1
     5      5      6   2
     6      6      1   1
     7      4      7   1
     8      7      8   1
     9      8      9   2
    10      9     10   1
    11     10     11   2
    12     11     12   1
    13     12     13   2
    14     13      8   1
    15     14     15   1
    16      1     14   1
    17     16     17   2
    18     17     18   1
    19     18     19   2
    20     19     20   1
    21     20     21   2
    22     21     16   1
    23      7     16   1
    24      2     22   1
    25      3     23   1
    26      5     24   1
    27      6     25   1
    28      9     26   1
    29     10     27   1
    30     11     28   1
    31     12     29   1
    32     13     30   1
    33     15     31   1
    34     15     32   1
    35     15     33   1
    36     17     34   1
    37     18     35   1
    38     19     36   1
    39     21     37   1
    40     38     39   2
    41     39     40   1
    42     40     41   2
    43     41     42   1
    44     42     43   2
    45     43     38   1
    46     40     44   1
    47     41     45   1
    48     42     46   1
    49     43     47   1
    50     20     38   1
