# Produced with molli package
@<TRIPOS>MOLECULE
E_9_L
52 56 0 0 0
SMALL
USER_CHARGES

@<TRIPOS>ATOM
     1 C      -5.116726     4.433306    -0.999774 C          1 UNL1 0.000
     2 C      -5.710510     3.312683    -1.574841 C          1 UNL1 0.000
     3 C      -5.073965     2.063246    -1.505696 C          1 UNL1 0.000
     4 C      -3.847553     1.898773    -0.838512 C          1 UNL1 0.000
     5 C      -3.263592     3.051448    -0.279365 C          1 UNL1 0.000
     6 C      -3.895742     4.297054    -0.347300 C          1 UNL1 0.000
     7 N      -3.186832     0.615267    -0.745134 N          1 UNL1 0.000
     8 C      -3.888847    -0.648979    -0.693788 C          1 UNL1 0.000
     9 C      -5.184664    -0.760545    -0.158961 C          1 UNL1 0.000
    10 C      -5.863410    -1.985189    -0.138418 C          1 UNL1 0.000
    11 C      -5.249661    -3.134466    -0.626746 C          1 UNL1 0.000
    12 C      -3.954340    -3.062247    -1.125747 C          1 UNL1 0.000
    13 C      -3.282959    -1.835448    -1.155514 C          1 UNL1 0.000
    14 O      -5.658759     5.687842    -0.973707 O          1 UNL1 0.000
    15 C      -6.423481     6.041488    -2.120315 C          1 UNL1 0.000
    16 C      -1.748253     0.600688    -0.734008 C          1 UNL1 0.000
    17 C      -1.035611     0.762274    -1.930956 C          1 UNL1 0.000
    18 C       0.357023     0.747406    -1.925177 C          1 UNL1 0.000
    19 C       1.045452     0.609155    -0.718759 C          1 UNL1 0.000
    20 C       0.354677     0.476679     0.496653 C          1 UNL1 0.000
    21 C      -1.047280     0.446860     0.473576 C          1 UNL1 0.000
    22 H      -6.675591     3.372508    -2.066558 H          1 UNL1 0.000
    23 H      -5.551860     1.217494    -1.993926 H          1 UNL1 0.000
    24 H      -2.311160     2.996146     0.240568 H          1 UNL1 0.000
    25 H      -3.425583     5.164549     0.108431 H          1 UNL1 0.000
    26 H      -5.682093     0.105809     0.269043 H          1 UNL1 0.000
    27 H      -6.870163    -2.038752     0.267664 H          1 UNL1 0.000
    28 H      -5.774808    -4.085653    -0.609044 H          1 UNL1 0.000
    29 H      -3.460431    -3.956988    -1.495736 H          1 UNL1 0.000
    30 H      -2.275450    -1.822437    -1.563044 H          1 UNL1 0.000
    31 H      -5.847359     5.890304    -3.039568 H          1 UNL1 0.000
    32 H      -6.660021     7.107446    -2.044436 H          1 UNL1 0.000
    33 H      -7.370918     5.495725    -2.154385 H          1 UNL1 0.000
    34 H      -1.573720     0.883653    -2.867544 H          1 UNL1 0.000
    35 H       0.906794     0.856806    -2.855921 H          1 UNL1 0.000
    36 H       2.133954     0.626485    -0.723435 H          1 UNL1 0.000
    37 H      -1.605124     0.339270     1.401620 H          1 UNL1 0.000
    38 C       1.093148     0.429597     1.762189 C          1 UNL1 0.000
    39 C       1.216989     1.587624     2.544824 C          1 UNL1 0.000
    40 C       1.958107     1.603395     3.732051 C          1 UNL1 0.000
    41 C       2.577736     0.411685     4.118345 C          1 UNL1 0.000
    42 C       2.472267    -0.765767     3.379185 C          1 UNL1 0.000
    43 C       1.718747    -0.755737     2.187527 C          1 UNL1 0.000
    44 N       3.368870     0.135982     5.211108 N          1 UNL1 0.000
    45 C       3.763274    -1.175703     5.189933 C          1 UNL1 0.000
    46 C       3.219657    -1.760314     4.069092 C          1 UNL1 0.000
    47 H       0.738914     2.510109     2.217810 H          1 UNL1 0.000
    48 H       2.051126     2.511874     4.317547 H          1 UNL1 0.000
    49 H       1.631862    -1.663619     1.596880 H          1 UNL1 0.000
    50 H       3.621211     0.810134     5.919760 H          1 UNL1 0.000
    51 H       4.394695    -1.577386     5.970994 H          1 UNL1 0.000
    52 H       3.348122    -2.792368     3.770603 H          1 UNL1 0.000
@<TRIPOS>BOND
     1      1      2   2
     2      2      3   1
     3      3      4   2
     4      4      5   1
     5      5      6   2
     6      6      1   1
     7      4      7   1
     8      7      8   1
     9      8      9   2
    10      9     10   1
    11     10     11   2
    12     11     12   1
    13     12     13   2
    14     13      8   1
    15     14     15   1
    16      1     14   1
    17     16     17   2
    18     17     18   1
    19     18     19   2
    20     19     20   1
    21     20     21   2
    22     21     16   1
    23      7     16   1
    24      2     22   1
    25      3     23   1
    26      5     24   1
    27      6     25   1
    28      9     26   1
    29     10     27   1
    30     11     28   1
    31     12     29   1
    32     13     30   1
    33     15     31   1
    34     15     32   1
    35     15     33   1
    36     17     34   1
    37     18     35   1
    38     19     36   1
    39     21     37   1
    40     38     39   2
    41     39     40   1
    42     40     41   2
    43     41     42   1
    44     42     43   2
    45     43     38   1
    46     41     44   1
    47     44     45   1
    48     45     46   2
    49     46     42   1
    50     39     47   1
    51     40     48   1
    52     43     49   1
    53     44     50   1
    54     45     51   1
    55     46     52   1
    56     20     38   1
