# Produced with molli package
@<TRIPOS>MOLECULE
E_9_P
52 55 0 0 0
SMALL
USER_CHARGES

@<TRIPOS>ATOM
     1 C      -5.077637     4.368758    -1.036157 C          1 UNL1 0.000
     2 C      -5.667070     3.242624    -1.604240 C          1 UNL1 0.000
     3 C      -5.031455     1.994808    -1.517509 C          1 UNL1 0.000
     4 C      -3.807009     1.841971    -0.842974 C          1 UNL1 0.000
     5 C      -3.230349     2.998254    -0.285551 C          1 UNL1 0.000
     6 C      -3.864290     4.241464    -0.366987 C          1 UNL1 0.000
     7 N      -3.146728     0.560408    -0.741869 N          1 UNL1 0.000
     8 C      -3.854739    -0.694576    -0.629050 C          1 UNL1 0.000
     9 C      -5.125737    -0.778267    -0.032292 C          1 UNL1 0.000
    10 C      -5.808136    -1.996906     0.060146 C          1 UNL1 0.000
    11 C      -5.225502    -3.164005    -0.423842 C          1 UNL1 0.000
    12 C      -3.956981    -3.115556    -0.991958 C          1 UNL1 0.000
    13 C      -3.279737    -1.895721    -1.089154 C          1 UNL1 0.000
    14 O      -5.623518     5.622108    -1.033693 O          1 UNL1 0.000
    15 C      -6.311714     5.973704    -2.229002 C          1 UNL1 0.000
    16 C      -1.709374     0.542381    -0.726349 C          1 UNL1 0.000
    17 C      -0.988729     0.686537    -1.919719 C          1 UNL1 0.000
    18 C       0.404743     0.687628    -1.901257 C          1 UNL1 0.000
    19 C       1.085538     0.585304    -0.686157 C          1 UNL1 0.000
    20 C       0.384730     0.470776     0.524345 C          1 UNL1 0.000
    21 C      -1.016317     0.419216     0.488050 C          1 UNL1 0.000
    22 H      -6.628725     3.299441    -2.103951 H          1 UNL1 0.000
    23 H      -5.504078     1.140681    -1.995741 H          1 UNL1 0.000
    24 H      -2.283380     2.947488     0.245194 H          1 UNL1 0.000
    25 H      -3.402524     5.113027     0.088559 H          1 UNL1 0.000
    26 H      -5.595954     0.105639     0.390548 H          1 UNL1 0.000
    27 H      -6.792930    -2.031512     0.519138 H          1 UNL1 0.000
    28 H      -5.754044    -4.110665    -0.350503 H          1 UNL1 0.000
    29 H      -3.489735    -4.024081    -1.362506 H          1 UNL1 0.000
    30 H      -2.294337    -1.897783    -1.548140 H          1 UNL1 0.000
    31 H      -5.690303     5.790487    -3.112444 H          1 UNL1 0.000
    32 H      -6.523920     7.046516    -2.185540 H          1 UNL1 0.000
    33 H      -7.268981     5.449898    -2.305927 H          1 UNL1 0.000
    34 H      -1.519984     0.787236    -2.862657 H          1 UNL1 0.000
    35 H       0.960412     0.786987    -2.829808 H          1 UNL1 0.000
    36 H       2.173349     0.621538    -0.682495 H          1 UNL1 0.000
    37 H      -1.581468     0.327931     1.413708 H          1 UNL1 0.000
    38 C       1.097647     0.475111     1.803753 C          1 UNL1 0.000
    39 C       1.730293    -0.678395     2.290280 C          1 UNL1 0.000
    40 C       2.413396    -0.653940     3.509663 C          1 UNL1 0.000
    41 C       2.480089     0.530799     4.239640 C          1 UNL1 0.000
    42 C       1.838074     1.678844     3.788119 C          1 UNL1 0.000
    43 C       1.156604     1.651724     2.570658 C          1 UNL1 0.000
    44 O       3.115554     0.572106     5.450130 O          1 UNL1 0.000
    45 C       4.528717     0.649414     5.263324 C          1 UNL1 0.000
    46 H       1.681415    -1.606340     1.724753 H          1 UNL1 0.000
    47 H       2.879473    -1.558109     3.889220 H          1 UNL1 0.000
    48 H       1.869924     2.590697     4.376832 H          1 UNL1 0.000
    49 H       0.667591     2.557291     2.216795 H          1 UNL1 0.000
    50 H       4.988232     0.797776     6.245171 H          1 UNL1 0.000
    51 H       4.801379     1.501823     4.630455 H          1 UNL1 0.000
    52 H       4.922959    -0.281252     4.841913 H          1 UNL1 0.000
@<TRIPOS>BOND
     1      1      2   2
     2      2      3   1
     3      3      4   2
     4      4      5   1
     5      5      6   2
     6      6      1   1
     7      4      7   1
     8      7      8   1
     9      8      9   2
    10      9     10   1
    11     10     11   2
    12     11     12   1
    13     12     13   2
    14     13      8   1
    15     14     15   1
    16      1     14   1
    17     16     17   2
    18     17     18   1
    19     18     19   2
    20     19     20   1
    21     20     21   2
    22     21     16   1
    23      7     16   1
    24      2     22   1
    25      3     23   1
    26      5     24   1
    27      6     25   1
    28      9     26   1
    29     10     27   1
    30     11     28   1
    31     12     29   1
    32     13     30   1
    33     15     31   1
    34     15     32   1
    35     15     33   1
    36     17     34   1
    37     18     35   1
    38     19     36   1
    39     21     37   1
    40     38     39   2
    41     39     40   1
    42     40     41   2
    43     41     42   1
    44     42     43   2
    45     43     38   1
    46     44     45   1
    47     41     44   1
    48     39     46   1
    49     40     47   1
    50     42     48   1
    51     43     49   1
    52     45     50   1
    53     45     51   1
    54     45     52   1
    55     20     38   1
