# Produced with molli package
@<TRIPOS>MOLECULE
E_9_R
49 52 0 0 0
SMALL
USER_CHARGES

@<TRIPOS>ATOM
     1 C      -5.280093     4.295635    -0.519484 C          1 UNL1 0.000
     2 C      -5.825549     3.172228     0.091818 C          1 UNL1 0.000
     3 C      -5.143894     1.951134     0.044257 C          1 UNL1 0.000
     4 C      -3.905368     1.832084    -0.612388 C          1 UNL1 0.000
     5 C      -3.345987     3.002710    -1.160684 C          1 UNL1 0.000
     6 C      -4.025275     4.224738    -1.115250 C          1 UNL1 0.000
     7 N      -3.219907     0.565100    -0.709192 N          1 UNL1 0.000
     8 C      -3.911841    -0.698443    -0.844394 C          1 UNL1 0.000
     9 C      -5.164587    -0.795858    -1.475273 C          1 UNL1 0.000
    10 C      -5.824766    -2.024084    -1.595053 C          1 UNL1 0.000
    11 C      -5.237099    -3.185916    -1.103211 C          1 UNL1 0.000
    12 C      -3.987565    -3.122297    -0.496463 C          1 UNL1 0.000
    13 C      -3.333018    -1.893171    -0.370950 C          1 UNL1 0.000
    14 O      -5.985011     5.465395    -0.445960 O          1 UNL1 0.000
    15 C      -6.324755     5.952564    -1.744487 C          1 UNL1 0.000
    16 C      -1.782716     0.557308    -0.727332 C          1 UNL1 0.000
    17 C      -1.092988     0.318672    -1.924808 C          1 UNL1 0.000
    18 C       0.299106     0.270971    -1.936354 C          1 UNL1 0.000
    19 C       1.009015     0.414514    -0.742934 C          1 UNL1 0.000
    20 C       0.340094     0.626504     0.474165 C          1 UNL1 0.000
    21 C      -1.059008     0.734925     0.462238 C          1 UNL1 0.000
    22 H      -6.783993     3.240915     0.598295 H          1 UNL1 0.000
    23 H      -5.588544     1.091436     0.539445 H          1 UNL1 0.000
    24 H      -2.376188     2.976210    -1.650830 H          1 UNL1 0.000
    25 H      -3.559778     5.109562    -1.538149 H          1 UNL1 0.000
    26 H      -5.637844     0.084603    -1.902115 H          1 UNL1 0.000
    27 H      -6.796499    -2.070491    -2.079764 H          1 UNL1 0.000
    28 H      -5.748991    -4.139853    -1.198006 H          1 UNL1 0.000
    29 H      -3.518526    -4.026095    -0.116540 H          1 UNL1 0.000
    30 H      -2.363759    -1.880921     0.120263 H          1 UNL1 0.000
    31 H      -5.440611     6.297115    -2.290359 H          1 UNL1 0.000
    32 H      -6.992073     6.810149    -1.615994 H          1 UNL1 0.000
    33 H      -6.860684     5.191506    -2.323326 H          1 UNL1 0.000
    34 H      -1.648387     0.182307    -2.849506 H          1 UNL1 0.000
    35 H       0.829746     0.107334    -2.870542 H          1 UNL1 0.000
    36 H       2.095619     0.353958    -0.762716 H          1 UNL1 0.000
    37 H      -1.598075     0.906333     1.392053 H          1 UNL1 0.000
    38 C       1.078948     0.656454     1.736324 C          1 UNL1 0.000
    39 N       1.252671     1.873745     2.307961 N          1 UNL1 0.000
    40 C       1.936511     1.923599     3.479857 C          1 UNL1 0.000
    41 C       2.443969     0.797490     4.108683 C          1 UNL1 0.000
    42 C       2.255085    -0.452555     3.520833 C          1 UNL1 0.000
    43 C       1.564299    -0.520424     2.312291 C          1 UNL1 0.000
    44 N       3.161406     0.929839     5.365417 N          1 UNL1 0.000
    45 O       3.567566     2.056063     5.680779 O          1 UNL1 0.000
    46 O       3.326313    -0.096006     6.040873 O          1 UNL1 0.000
    47 H       2.051381     2.923257     3.891786 H          1 UNL1 0.000
    48 H       2.632475    -1.363036     3.979790 H          1 UNL1 0.000
    49 H       1.397578    -1.479426     1.829280 H          1 UNL1 0.000
@<TRIPOS>BOND
     1      1      2   2
     2      2      3   1
     3      3      4   2
     4      4      5   1
     5      5      6   2
     6      6      1   1
     7      4      7   1
     8      7      8   1
     9      8      9   2
    10      9     10   1
    11     10     11   2
    12     11     12   1
    13     12     13   2
    14     13      8   1
    15     14     15   1
    16      1     14   1
    17     16     17   2
    18     17     18   1
    19     18     19   2
    20     19     20   1
    21     20     21   2
    22     21     16   1
    23      7     16   1
    24      2     22   1
    25      3     23   1
    26      5     24   1
    27      6     25   1
    28      9     26   1
    29     10     27   1
    30     11     28   1
    31     12     29   1
    32     13     30   1
    33     15     31   1
    34     15     32   1
    35     15     33   1
    36     17     34   1
    37     18     35   1
    38     19     36   1
    39     21     37   1
    40     38     39   2
    41     39     40   1
    42     40     41   2
    43     41     42   1
    44     42     43   2
    45     43     38   1
    46     44     45   2
    47     44     46   1
    48     41     44   1
    49     40     47   1
    50     42     48   1
    51     43     49   1
    52     20     38   1
