# Produced with molli package
@<TRIPOS>MOLECULE
F_10_P
54 58 0 0 0
SMALL
USER_CHARGES

@<TRIPOS>ATOM
     1 N      -3.224019     0.480080     1.660585 N          1 UNL1 0.000
     2 C      -3.913537    -0.796718     1.669789 C          1 UNL1 0.000
     3 C      -3.879419     1.757070     1.865520 C          1 UNL1 0.000
     4 C      -5.035013     1.896317     2.653373 C          1 UNL1 0.000
     5 C      -5.653337     3.140491     2.827342 C          1 UNL1 0.000
     6 C      -5.106978     4.281874     2.248663 C          1 UNL1 0.000
     7 C      -3.940877     4.181457     1.498844 C          1 UNL1 0.000
     8 C      -3.337380     2.934346     1.308585 C          1 UNL1 0.000
     9 C      -3.231681    -1.990703     1.970624 C          1 UNL1 0.000
    10 C      -3.896553    -3.219725     2.056267 C          1 UNL1 0.000
    11 C      -5.278255    -3.297354     1.854785 C          1 UNL1 0.000
    12 C      -5.984207    -2.129580     1.506165 C          1 UNL1 0.000
    13 C      -5.286287    -0.909678     1.377581 C          1 UNL1 0.000
    14 C      -5.969830    -4.511429     2.002981 C          1 UNL1 0.000
    15 C      -7.352854    -4.566424     1.827326 C          1 UNL1 0.000
    16 C      -8.054972    -3.414866     1.487364 C          1 UNL1 0.000
    17 C      -7.375564    -2.205953     1.317941 C          1 UNL1 0.000
    18 C      -1.783900     0.487996     1.649623 C          1 UNL1 0.000
    19 C      -1.076657     0.613689     2.852634 C          1 UNL1 0.000
    20 C       0.310052     0.618252     2.833883 C          1 UNL1 0.000
    21 C       1.012863     0.530497     1.637227 C          1 UNL1 0.000
    22 C       0.325792     0.426760     0.419452 C          1 UNL1 0.000
    23 C      -1.077847     0.384849     0.438439 C          1 UNL1 0.000
    24 F       0.984783     0.713137     3.987144 F          1 UNL1 0.000
    25 H      -5.464274     1.039938     3.166320 H          1 UNL1 0.000
    26 H      -6.557572     3.215694     3.425904 H          1 UNL1 0.000
    27 H      -5.582650     5.248652     2.390422 H          1 UNL1 0.000
    28 H      -3.497071     5.070140     1.057632 H          1 UNL1 0.000
    29 H      -2.435015     2.895869     0.704185 H          1 UNL1 0.000
    30 H      -2.163972    -1.992433     2.172760 H          1 UNL1 0.000
    31 H      -3.323858    -4.108767     2.308029 H          1 UNL1 0.000
    32 H      -5.841588    -0.032918     1.055114 H          1 UNL1 0.000
    33 H      -5.436387    -5.420200     2.270370 H          1 UNL1 0.000
    34 H      -7.879657    -5.507802     1.961007 H          1 UNL1 0.000
    35 H      -9.133630    -3.453908     1.358244 H          1 UNL1 0.000
    36 H      -7.944385    -1.316466     1.058534 H          1 UNL1 0.000
    37 H      -1.603272     0.691260     3.798431 H          1 UNL1 0.000
    38 H       2.098989     0.554731     1.662269 H          1 UNL1 0.000
    39 H      -1.633166     0.299698    -0.494202 H          1 UNL1 0.000
    40 C       1.065772     0.393937    -0.843125 C          1 UNL1 0.000
    41 C       1.315529     1.581038    -1.552167 C          1 UNL1 0.000
    42 C       2.051715     1.562909    -2.739371 C          1 UNL1 0.000
    43 C       2.551944     0.355019    -3.218008 C          1 UNL1 0.000
    44 C       2.286047    -0.836243    -2.548976 C          1 UNL1 0.000
    45 C       1.554165    -0.815328    -1.359509 C          1 UNL1 0.000
    46 O       3.258151     0.295547    -4.387866 O          1 UNL1 0.000
    47 C       4.570764     0.827982    -4.207873 C          1 UNL1 0.000
    48 H       0.936167     2.529976    -1.178079 H          1 UNL1 0.000
    49 H       2.223413     2.485672    -3.285241 H          1 UNL1 0.000
    50 H       2.654993    -1.776941    -2.946981 H          1 UNL1 0.000
    51 H       1.365691    -1.749760    -0.835474 H          1 UNL1 0.000
    52 H       5.151295     0.596840    -5.106101 H          1 UNL1 0.000
    53 H       5.076450     0.366497    -3.351673 H          1 UNL1 0.000
    54 H       4.542382     1.916616    -4.094034 H          1 UNL1 0.000
@<TRIPOS>BOND
     1      1      2   1
     2      1      3   1
     3      3      4   2
     4      4      5   1
     5      5      6   2
     6      6      7   1
     7      7      8   2
     8      8      3   1
     9      2      9   2
    10      9     10   1
    11     10     11   2
    12     11     12   1
    13     12     13   2
    14     13      2   1
    15     11     14   1
    16     14     15   2
    17     15     16   1
    18     16     17   2
    19     17     12   1
    20     18     19   2
    21     19     20   1
    22     20     21   2
    23     21     22   1
    24     22     23   2
    25     23     18   1
    26     20     24   1
    27      1     18   1
    28      4     25   1
    29      5     26   1
    30      6     27   1
    31      7     28   1
    32      8     29   1
    33      9     30   1
    34     10     31   1
    35     13     32   1
    36     14     33   1
    37     15     34   1
    38     16     35   1
    39     17     36   1
    40     19     37   1
    41     21     38   1
    42     23     39   1
    43     40     41   2
    44     41     42   1
    45     42     43   2
    46     43     44   1
    47     44     45   2
    48     45     40   1
    49     46     47   1
    50     43     46   1
    51     41     48   1
    52     42     49   1
    53     44     50   1
    54     45     51   1
    55     47     52   1
    56     47     53   1
    57     47     54   1
    58     22     40   1
