# Produced with molli package
@<TRIPOS>MOLECULE
F_10_K
52 56 0 0 0
SMALL
USER_CHARGES

@<TRIPOS>ATOM
     1 N      -3.254384     0.535588     1.739131 N          1 UNL1 0.000
     2 C      -3.968464    -0.727220     1.735207 C          1 UNL1 0.000
     3 C      -3.890269     1.832997     1.864948 C          1 UNL1 0.000
     4 C      -5.106425     2.014620     2.545564 C          1 UNL1 0.000
     5 C      -5.707996     3.275900     2.643130 C          1 UNL1 0.000
     6 C      -5.087596     4.393944     2.094634 C          1 UNL1 0.000
     7 C      -3.863421     4.253420     1.452969 C          1 UNL1 0.000
     8 C      -3.275029     2.989655     1.339658 C          1 UNL1 0.000
     9 C      -3.332926    -1.921355     2.126711 C          1 UNL1 0.000
    10 C      -4.017881    -3.140526     2.177730 C          1 UNL1 0.000
    11 C      -5.373296    -3.210669     1.845711 C          1 UNL1 0.000
    12 C      -6.032060    -2.041610     1.411397 C          1 UNL1 0.000
    13 C      -5.311893    -0.830742     1.328658 C          1 UNL1 0.000
    14 C      -6.086300    -4.416614     1.942772 C          1 UNL1 0.000
    15 C      -7.444417    -4.466470     1.629727 C          1 UNL1 0.000
    16 C      -8.100259    -3.315139     1.204945 C          1 UNL1 0.000
    17 C      -7.397999    -2.113162     1.088547 C          1 UNL1 0.000
    18 C      -1.815439     0.508026     1.737625 C          1 UNL1 0.000
    19 C      -1.108171     0.589352     2.943060 C          1 UNL1 0.000
    20 C       0.278593     0.562753     2.923429 C          1 UNL1 0.000
    21 C       0.981376     0.494552     1.724204 C          1 UNL1 0.000
    22 C       0.294114     0.445517     0.503144 C          1 UNL1 0.000
    23 C      -1.109927     0.424149     0.524848 C          1 UNL1 0.000
    24 F       0.955006     0.616399     4.078280 F          1 UNL1 0.000
    25 H      -5.600267     1.179220     3.034375 H          1 UNL1 0.000
    26 H      -6.658655     3.382886     3.159332 H          1 UNL1 0.000
    27 H      -5.550924     5.373534     2.177012 H          1 UNL1 0.000
    28 H      -3.361561     5.123366     1.037160 H          1 UNL1 0.000
    29 H      -2.323517     2.926529     0.819562 H          1 UNL1 0.000
    30 H      -2.288702    -1.929814     2.426093 H          1 UNL1 0.000
    31 H      -3.481366    -4.029800     2.500968 H          1 UNL1 0.000
    32 H      -5.825151     0.045202     0.939313 H          1 UNL1 0.000
    33 H      -5.588851    -5.325366     2.274476 H          1 UNL1 0.000
    34 H      -7.988835    -5.402703     1.721532 H          1 UNL1 0.000
    35 H      -9.160317    -3.350331     0.967414 H          1 UNL1 0.000
    36 H      -7.931715    -1.224208     0.759667 H          1 UNL1 0.000
    37 H      -1.633979     0.658118     3.890008 H          1 UNL1 0.000
    38 H       2.067632     0.506843     1.753646 H          1 UNL1 0.000
    39 H      -1.670298     0.375751    -0.407641 H          1 UNL1 0.000
    40 C       1.024697     0.474751    -0.767152 C          1 UNL1 0.000
    41 C       1.787802    -0.624970    -1.192039 C          1 UNL1 0.000
    42 C       2.502321    -0.578487    -2.393206 C          1 UNL1 0.000
    43 C       2.450687     0.579909    -3.176752 C          1 UNL1 0.000
    44 C       1.695245     1.685673    -2.776976 C          1 UNL1 0.000
    45 C       0.987419     1.626766    -1.574438 C          1 UNL1 0.000
    46 N       3.202923     0.637511    -4.428961 N          1 UNL1 0.000
    47 O       2.774822     1.388248    -5.318777 O          1 UNL1 0.000
    48 O       4.218928    -0.063378    -4.519395 O          1 UNL1 0.000
    49 H       1.825565    -1.529267    -0.586357 H          1 UNL1 0.000
    50 H       3.085323    -1.442925    -2.703579 H          1 UNL1 0.000
    51 H       1.656631     2.591759    -3.378111 H          1 UNL1 0.000
    52 H       0.411226     2.495229    -1.257221 H          1 UNL1 0.000
@<TRIPOS>BOND
     1      1      2   1
     2      1      3   1
     3      3      4   2
     4      4      5   1
     5      5      6   2
     6      6      7   1
     7      7      8   2
     8      8      3   1
     9      2      9   2
    10      9     10   1
    11     10     11   2
    12     11     12   1
    13     12     13   2
    14     13      2   1
    15     11     14   1
    16     14     15   2
    17     15     16   1
    18     16     17   2
    19     17     12   1
    20     18     19   2
    21     19     20   1
    22     20     21   2
    23     21     22   1
    24     22     23   2
    25     23     18   1
    26     20     24   1
    27      1     18   1
    28      4     25   1
    29      5     26   1
    30      6     27   1
    31      7     28   1
    32      8     29   1
    33      9     30   1
    34     10     31   1
    35     13     32   1
    36     14     33   1
    37     15     34   1
    38     16     35   1
    39     17     36   1
    40     19     37   1
    41     21     38   1
    42     23     39   1
    43     40     41   2
    44     41     42   1
    45     42     43   2
    46     43     44   1
    47     44     45   2
    48     45     40   1
    49     46     47   2
    50     46     48   1
    51     43     46   1
    52     41     49   1
    53     42     50   1
    54     44     51   1
    55     45     52   1
    56     22     40   1
