# Produced with molli package
@<TRIPOS>MOLECULE
F_10_L
54 59 0 0 0
SMALL
USER_CHARGES

@<TRIPOS>ATOM
     1 N      -3.295062     0.514963     1.714557 N          1 UNL1 0.000
     2 C      -3.980030    -0.763867     1.702478 C          1 UNL1 0.000
     3 C      -3.963259     1.798561     1.803198 C          1 UNL1 0.000
     4 C      -5.166615     1.976907     2.506717 C          1 UNL1 0.000
     5 C      -5.808281     3.220972     2.550725 C          1 UNL1 0.000
     6 C      -5.237686     4.326900     1.928043 C          1 UNL1 0.000
     7 C      -4.021794     4.192428     1.268714 C          1 UNL1 0.000
     8 C      -3.394585     2.944106     1.207319 C          1 UNL1 0.000
     9 C      -3.302574    -1.954393     2.030293 C          1 UNL1 0.000
    10 C      -3.959062    -3.190183     2.074291 C          1 UNL1 0.000
    11 C      -5.328585    -3.280477     1.810046 C          1 UNL1 0.000
    12 C      -6.031038    -2.113379     1.445397 C          1 UNL1 0.000
    13 C      -5.338207    -0.888361     1.355299 C          1 UNL1 0.000
    14 C      -6.015406    -4.501508     1.908657 C          1 UNL1 0.000
    15 C      -7.388844    -4.566442     1.673305 C          1 UNL1 0.000
    16 C      -8.087581    -3.414948     1.323614 C          1 UNL1 0.000
    17 C      -7.411964    -2.199097     1.200411 C          1 UNL1 0.000
    18 C      -1.855919     0.529389     1.751557 C          1 UNL1 0.000
    19 C      -1.187976     0.701704     2.969992 C          1 UNL1 0.000
    20 C       0.198259     0.740927     2.988724 C          1 UNL1 0.000
    21 C       0.936710     0.645737     1.813658 C          1 UNL1 0.000
    22 C       0.289924     0.490778     0.578473 C          1 UNL1 0.000
    23 C      -1.112237     0.405212     0.564722 C          1 UNL1 0.000
    24 F       0.838052     0.884400     4.156893 F          1 UNL1 0.000
    25 H      -5.619202     1.151181     3.049200 H          1 UNL1 0.000
    26 H      -6.751771     3.324449     3.080424 H          1 UNL1 0.000
    27 H      -5.733300     5.293287     1.965436 H          1 UNL1 0.000
    28 H      -3.557791     5.053991     0.795486 H          1 UNL1 0.000
    29 H      -2.453540     2.880104     0.667504 H          1 UNL1 0.000
    30 H      -2.245045    -1.947381     2.280167 H          1 UNL1 0.000
    31 H      -3.388785    -4.076916     2.342352 H          1 UNL1 0.000
    32 H      -5.889266    -0.017165     1.010338 H          1 UNL1 0.000
    33 H      -5.484865    -5.410589     2.183454 H          1 UNL1 0.000
    34 H      -7.912232    -5.514143     1.768605 H          1 UNL1 0.000
    35 H      -9.159561    -3.460719     1.150518 H          1 UNL1 0.000
    36 H      -7.977804    -1.309572     0.931577 H          1 UNL1 0.000
    37 H      -1.742921     0.796269     3.897676 H          1 UNL1 0.000
    38 H       2.020789     0.699639     1.870121 H          1 UNL1 0.000
    39 H      -1.642196     0.293955    -0.379958 H          1 UNL1 0.000
    40 C       1.060019     0.469588    -0.671110 C          1 UNL1 0.000
    41 C       1.077557    -0.666148    -1.492203 C          1 UNL1 0.000
    42 C       1.809324    -0.703502    -2.686667 C          1 UNL1 0.000
    43 C       2.524866     0.443824    -3.043924 C          1 UNL1 0.000
    44 C       2.530761     1.598238    -2.263566 C          1 UNL1 0.000
    45 C       1.791840     1.607797    -1.064648 C          1 UNL1 0.000
    46 N       3.318819     0.694274    -4.140730 N          1 UNL1 0.000
    47 C       3.818686     1.968617    -4.082627 C          1 UNL1 0.000
    48 C       3.345895     2.553721    -2.930404 C          1 UNL1 0.000
    49 H       0.517910    -1.553014    -1.198435 H          1 UNL1 0.000
    50 H       1.815696    -1.594319    -3.306019 H          1 UNL1 0.000
    51 H       1.783376     2.505611    -0.451848 H          1 UNL1 0.000
    52 H       3.501083     0.029748    -4.879810 H          1 UNL1 0.000
    53 H       4.464916     2.347698    -4.862768 H          1 UNL1 0.000
    54 H       3.561948     3.560982    -2.599124 H          1 UNL1 0.000
@<TRIPOS>BOND
     1      1      2   1
     2      1      3   1
     3      3      4   2
     4      4      5   1
     5      5      6   2
     6      6      7   1
     7      7      8   2
     8      8      3   1
     9      2      9   2
    10      9     10   1
    11     10     11   2
    12     11     12   1
    13     12     13   2
    14     13      2   1
    15     11     14   1
    16     14     15   2
    17     15     16   1
    18     16     17   2
    19     17     12   1
    20     18     19   2
    21     19     20   1
    22     20     21   2
    23     21     22   1
    24     22     23   2
    25     23     18   1
    26     20     24   1
    27      1     18   1
    28      4     25   1
    29      5     26   1
    30      6     27   1
    31      7     28   1
    32      8     29   1
    33      9     30   1
    34     10     31   1
    35     13     32   1
    36     14     33   1
    37     15     34   1
    38     16     35   1
    39     17     36   1
    40     19     37   1
    41     21     38   1
    42     23     39   1
    43     40     41   2
    44     41     42   1
    45     42     43   2
    46     43     44   1
    47     44     45   2
    48     45     40   1
    49     43     46   1
    50     46     47   1
    51     47     48   2
    52     48     44   1
    53     41     49   1
    54     42     50   1
    55     45     51   1
    56     46     52   1
    57     47     53   1
    58     48     54   1
    59     22     40   1
