# Produced with molli package
@<TRIPOS>MOLECULE
F_10_S
55 59 0 0 0
SMALL
USER_CHARGES

@<TRIPOS>ATOM
     1 N      -3.303610     0.563735     1.791558 N          1 UNL1 0.000
     2 C      -4.000913    -0.712234     1.818000 C          1 UNL1 0.000
     3 C      -3.955947     1.856293     1.710696 C          1 UNL1 0.000
     4 C      -5.175367     2.048465     1.038655 C          1 UNL1 0.000
     5 C      -5.819106     3.292574     1.030134 C          1 UNL1 0.000
     6 C      -5.230029     4.390571     1.648117 C          1 UNL1 0.000
     7 C      -3.991647     4.248544     2.261685 C          1 UNL1 0.000
     8 C      -3.364696     2.998226     2.291528 C          1 UNL1 0.000
     9 C      -3.319630    -1.916327     1.547792 C          1 UNL1 0.000
    10 C      -3.978092    -3.151765     1.516811 C          1 UNL1 0.000
    11 C      -5.356931    -3.229351     1.728089 C          1 UNL1 0.000
    12 C      -6.065766    -2.050552     2.035243 C          1 UNL1 0.000
    13 C      -5.369416    -0.826221     2.125357 C          1 UNL1 0.000
    14 C      -6.045519    -4.449724     1.630668 C          1 UNL1 0.000
    15 C      -7.428519    -4.501484     1.804945 C          1 UNL1 0.000
    16 C      -8.134457    -3.338158     2.095183 C          1 UNL1 0.000
    17 C      -7.456811    -2.123547     2.222117 C          1 UNL1 0.000
    18 C      -1.862849     0.553317     1.803150 C          1 UNL1 0.000
    19 C      -1.168262     0.433934     3.012337 C          1 UNL1 0.000
    20 C       0.218571     0.410098     3.001611 C          1 UNL1 0.000
    21 C       0.931656     0.464198     1.807887 C          1 UNL1 0.000
    22 C       0.258024     0.557999     0.581394 C          1 UNL1 0.000
    23 C      -1.144636     0.628590     0.593915 C          1 UNL1 0.000
    24 F       0.885011     0.322129     4.160133 F          1 UNL1 0.000
    25 H      -5.645460     1.232213     0.496847 H          1 UNL1 0.000
    26 H      -6.780254     3.401067     0.534078 H          1 UNL1 0.000
    27 H      -5.728249     5.356333     1.641544 H          1 UNL1 0.000
    28 H      -3.511209     5.105232     2.727425 H          1 UNL1 0.000
    29 H      -2.406969     2.932565     2.800071 H          1 UNL1 0.000
    30 H      -2.253680    -1.924006     1.337853 H          1 UNL1 0.000
    31 H      -3.401534    -4.047851     1.298776 H          1 UNL1 0.000
    32 H      -5.930087     0.049544     2.439741 H          1 UNL1 0.000
    33 H      -5.509074    -5.367975     1.402316 H          1 UNL1 0.000
    34 H      -7.953394    -5.448227     1.707640 H          1 UNL1 0.000
    35 H      -9.213755    -3.373542     2.218601 H          1 UNL1 0.000
    36 H      -8.028703    -1.225145     2.443934 H          1 UNL1 0.000
    37 H      -1.703010     0.373006     3.954570 H          1 UNL1 0.000
    38 H       2.017275     0.427153     1.844266 H          1 UNL1 0.000
    39 H      -1.695408     0.698211    -0.343005 H          1 UNL1 0.000
    40 C       1.007483     0.534787    -0.678738 C          1 UNL1 0.000
    41 C       1.141624     1.680104    -1.470520 C          1 UNL1 0.000
    42 C       1.888959     1.644554    -2.654673 C          1 UNL1 0.000
    43 C       2.513292     0.461569    -3.080810 C          1 UNL1 0.000
    44 C       2.368537    -0.688683    -2.301213 C          1 UNL1 0.000
    45 C       1.626036    -0.647903    -1.113128 C          1 UNL1 0.000
    46 C       3.306732     0.509924    -4.350660 C          1 UNL1 0.000
    47 C       3.990210    -0.719996    -4.896025 C          1 UNL1 0.000
    48 O       3.395964     1.574763    -4.960686 O          1 UNL1 0.000
    49 H       0.677694     2.616418    -1.165693 H          1 UNL1 0.000
    50 H       1.984504     2.556456    -3.242975 H          1 UNL1 0.000
    51 H       2.817173    -1.637140    -2.573270 H          1 UNL1 0.000
    52 H       1.530463    -1.557599    -0.521503 H          1 UNL1 0.000
    53 H       3.541543    -0.971107    -5.861437 H          1 UNL1 0.000
    54 H       3.924316    -1.595171    -4.254122 H          1 UNL1 0.000
    55 H       5.052115    -0.495137    -5.034787 H          1 UNL1 0.000
@<TRIPOS>BOND
     1      1      2   1
     2      1      3   1
     3      3      4   2
     4      4      5   1
     5      5      6   2
     6      6      7   1
     7      7      8   2
     8      8      3   1
     9      2      9   2
    10      9     10   1
    11     10     11   2
    12     11     12   1
    13     12     13   2
    14     13      2   1
    15     11     14   1
    16     14     15   2
    17     15     16   1
    18     16     17   2
    19     17     12   1
    20     18     19   2
    21     19     20   1
    22     20     21   2
    23     21     22   1
    24     22     23   2
    25     23     18   1
    26     20     24   1
    27      1     18   1
    28      4     25   1
    29      5     26   1
    30      6     27   1
    31      7     28   1
    32      8     29   1
    33      9     30   1
    34     10     31   1
    35     13     32   1
    36     14     33   1
    37     15     34   1
    38     16     35   1
    39     17     36   1
    40     19     37   1
    41     21     38   1
    42     23     39   1
    43     40     41   2
    44     41     42   1
    45     42     43   2
    46     43     44   1
    47     44     45   2
    48     45     40   1
    49     43     46   1
    50     46     47   1
    51     46     48   2
    52     41     49   1
    53     42     50   1
    54     44     51   1
    55     45     52   1
    56     47     53   1
    57     47     54   1
    58     47     55   1
    59     22     40   1
