# Produced with molli package
@<TRIPOS>MOLECULE
F_10_Q
48 52 0 0 0
SMALL
USER_CHARGES

@<TRIPOS>ATOM
     1 N      -3.277229     0.567815     1.702101 N          1 UNL1 0.000
     2 C      -3.987889    -0.697943     1.775199 C          1 UNL1 0.000
     3 C      -3.911878     1.862823     1.556923 C          1 UNL1 0.000
     4 C      -5.143216     2.034320     0.901471 C          1 UNL1 0.000
     5 C      -5.758135     3.290282     0.815377 C          1 UNL1 0.000
     6 C      -5.132038     4.415460     1.341771 C          1 UNL1 0.000
     7 C      -3.887004     4.287551     1.944776 C          1 UNL1 0.000
     8 C      -3.287278     3.028177     2.050722 C          1 UNL1 0.000
     9 C      -3.330358    -1.911137     1.489045 C          1 UNL1 0.000
    10 C      -3.995216    -3.142361     1.518595 C          1 UNL1 0.000
    11 C      -5.359690    -3.204870     1.813518 C          1 UNL1 0.000
    12 C      -6.045172    -2.016014     2.129666 C          1 UNL1 0.000
    13 C      -5.341548    -0.790978     2.148330 C          1 UNL1 0.000
    14 C      -6.052801    -4.426832     1.791044 C          1 UNL1 0.000
    15 C      -7.422000    -4.469950     2.054142 C          1 UNL1 0.000
    16 C      -8.107054    -3.297489     2.354616 C          1 UNL1 0.000
    17 C      -7.423198    -2.079801     2.402949 C          1 UNL1 0.000
    18 C      -1.837315     0.535242     1.734226 C          1 UNL1 0.000
    19 C      -1.163161     0.374049     2.949905 C          1 UNL1 0.000
    20 C       0.222331     0.309581     2.956821 C          1 UNL1 0.000
    21 C       0.953239     0.359767     1.773570 C          1 UNL1 0.000
    22 C       0.299374     0.498262     0.539932 C          1 UNL1 0.000
    23 C      -1.100487     0.619819     0.537968 C          1 UNL1 0.000
    24 F       0.870398     0.180863     4.121822 F          1 UNL1 0.000
    25 H      -5.642938     1.193504     0.428524 H          1 UNL1 0.000
    26 H      -6.724817     3.386944     0.327794 H          1 UNL1 0.000
    27 H      -5.606277     5.390652     1.271315 H          1 UNL1 0.000
    28 H      -3.377832     5.163133     2.339356 H          1 UNL1 0.000
    29 H      -2.320146     2.975323     2.543600 H          1 UNL1 0.000
    30 H      -2.278384    -1.928944     1.217772 H          1 UNL1 0.000
    31 H      -3.437200    -4.045697     1.286130 H          1 UNL1 0.000
    32 H      -5.878329     0.098883     2.463849 H          1 UNL1 0.000
    33 H      -5.532174    -5.351785     1.556083 H          1 UNL1 0.000
    34 H      -7.951483    -5.418639     2.018556 H          1 UNL1 0.000
    35 H      -9.176237    -3.327461     2.548819 H          1 UNL1 0.000
    36 H      -7.979343    -1.175161     2.635520 H          1 UNL1 0.000
    37 H      -1.712517     0.311499     3.883680 H          1 UNL1 0.000
    38 H       2.037039     0.295018     1.826799 H          1 UNL1 0.000
    39 H      -1.632369     0.738418    -0.405531 H          1 UNL1 0.000
    40 C       1.052728     0.476740    -0.713263 C          1 UNL1 0.000
    41 N       1.058830     1.620129    -1.442019 N          1 UNL1 0.000
    42 C       1.779299     1.583023    -2.588320 C          1 UNL1 0.000
    43 C       2.460179     0.451965    -3.007327 C          1 UNL1 0.000
    44 N       2.453907    -0.698317    -2.299675 N          1 UNL1 0.000
    45 C       1.738173    -0.657772    -1.148811 C          1 UNL1 0.000
    46 H       1.797729     2.499643    -3.166828 H          1 UNL1 0.000
    47 H       3.032325     0.441433    -3.928042 H          1 UNL1 0.000
    48 H       1.723840    -1.581711    -0.579738 H          1 UNL1 0.000
@<TRIPOS>BOND
     1      1      2   1
     2      1      3   1
     3      3      4   2
     4      4      5   1
     5      5      6   2
     6      6      7   1
     7      7      8   2
     8      8      3   1
     9      2      9   2
    10      9     10   1
    11     10     11   2
    12     11     12   1
    13     12     13   2
    14     13      2   1
    15     11     14   1
    16     14     15   2
    17     15     16   1
    18     16     17   2
    19     17     12   1
    20     18     19   2
    21     19     20   1
    22     20     21   2
    23     21     22   1
    24     22     23   2
    25     23     18   1
    26     20     24   1
    27      1     18   1
    28      4     25   1
    29      5     26   1
    30      6     27   1
    31      7     28   1
    32      8     29   1
    33      9     30   1
    34     10     31   1
    35     13     32   1
    36     14     33   1
    37     15     34   1
    38     16     35   1
    39     17     36   1
    40     19     37   1
    41     21     38   1
    42     23     39   1
    43     40     41   2
    44     41     42   1
    45     42     43   2
    46     43     44   1
    47     44     45   2
    48     45     40   1
    49     42     46   1
    50     43     47   1
    51     45     48   1
    52     22     40   1
