# Produced with molli package
@<TRIPOS>MOLECULE
F_10_O
49 53 0 0 0
SMALL
USER_CHARGES

@<TRIPOS>ATOM
     1 N      -3.285315     0.537109     1.683609 N          1 UNL1 0.000
     2 C      -3.963589    -0.746851     1.659902 C          1 UNL1 0.000
     3 C      -3.948951     1.821473     1.821743 C          1 UNL1 0.000
     4 C      -5.184570     1.975401     2.473130 C          1 UNL1 0.000
     5 C      -5.816294     3.223347     2.562264 C          1 UNL1 0.000
     6 C      -5.202504     4.359864     2.046112 C          1 UNL1 0.000
     7 C      -3.954343     4.250916     1.446838 C          1 UNL1 0.000
     8 C      -3.340087     2.998947     1.334137 C          1 UNL1 0.000
     9 C      -3.274757    -1.935111     1.975946 C          1 UNL1 0.000
    10 C      -3.919003    -3.176656     2.019366 C          1 UNL1 0.000
    11 C      -5.288137    -3.277577     1.764121 C          1 UNL1 0.000
    12 C      -6.002391    -2.115753     1.403913 C          1 UNL1 0.000
    13 C      -5.320101    -0.883489     1.312852 C          1 UNL1 0.000
    14 C      -5.961468    -4.505442     1.865933 C          1 UNL1 0.000
    15 C      -7.334911    -4.584253     1.638001 C          1 UNL1 0.000
    16 C      -8.046389    -3.439469     1.291602 C          1 UNL1 0.000
    17 C      -7.383494    -2.216470     1.165060 C          1 UNL1 0.000
    18 C      -1.844485     0.544930     1.697799 C          1 UNL1 0.000
    19 C      -1.156908     0.649505     2.913636 C          1 UNL1 0.000
    20 C       0.229759     0.668652     2.914210 C          1 UNL1 0.000
    21 C       0.950376     0.628513     1.725452 C          1 UNL1 0.000
    22 C       0.283759     0.547568     0.493414 C          1 UNL1 0.000
    23 C      -1.119327     0.471550     0.495557 C          1 UNL1 0.000
    24 F       0.888184     0.737691     4.078688 F          1 UNL1 0.000
    25 H      -5.675181     1.129181     2.945486 H          1 UNL1 0.000
    26 H      -6.786201     3.304717     3.046366 H          1 UNL1 0.000
    27 H      -5.689160     5.328543     2.121623 H          1 UNL1 0.000
    28 H      -3.454278     5.135308     1.060556 H          1 UNL1 0.000
    29 H      -2.371660     2.961915     0.843061 H          1 UNL1 0.000
    30 H      -2.214747    -1.924060     2.214820 H          1 UNL1 0.000
    31 H      -3.337415    -4.058799     2.278299 H          1 UNL1 0.000
    32 H      -5.878416    -0.018051     0.965471 H          1 UNL1 0.000
    33 H      -5.419469    -5.408993     2.137126 H          1 UNL1 0.000
    34 H      -7.847757    -5.537395     1.735670 H          1 UNL1 0.000
    35 H      -9.118537    -3.496537     1.123406 H          1 UNL1 0.000
    36 H      -7.959865    -1.333024     0.898718 H          1 UNL1 0.000
    37 H      -1.698122     0.697437     3.853005 H          1 UNL1 0.000
    38 H       2.035826     0.655265     1.768864 H          1 UNL1 0.000
    39 H      -1.657827     0.392955    -0.447844 H          1 UNL1 0.000
    40 C       1.032256     0.579164    -0.764301 C          1 UNL1 0.000
    41 N       0.991731    -0.550198    -1.509433 N          1 UNL1 0.000
    42 C       1.691700    -0.552531    -2.665860 C          1 UNL1 0.000
    43 C       2.425391     0.527502    -3.128655 C          1 UNL1 0.000
    44 C       2.445059     1.684254    -2.360615 C          1 UNL1 0.000
    45 C       1.742568     1.712722    -1.159514 C          1 UNL1 0.000
    46 H       1.646930    -1.479783    -3.230019 H          1 UNL1 0.000
    47 H       2.967132     0.468403    -4.065922 H          1 UNL1 0.000
    48 H       3.001614     2.556464    -2.691292 H          1 UNL1 0.000
    49 H       1.742583     2.609109    -0.547351 H          1 UNL1 0.000
@<TRIPOS>BOND
     1      1      2   1
     2      1      3   1
     3      3      4   2
     4      4      5   1
     5      5      6   2
     6      6      7   1
     7      7      8   2
     8      8      3   1
     9      2      9   2
    10      9     10   1
    11     10     11   2
    12     11     12   1
    13     12     13   2
    14     13      2   1
    15     11     14   1
    16     14     15   2
    17     15     16   1
    18     16     17   2
    19     17     12   1
    20     18     19   2
    21     19     20   1
    22     20     21   2
    23     21     22   1
    24     22     23   2
    25     23     18   1
    26     20     24   1
    27      1     18   1
    28      4     25   1
    29      5     26   1
    30      6     27   1
    31      7     28   1
    32      8     29   1
    33      9     30   1
    34     10     31   1
    35     13     32   1
    36     14     33   1
    37     15     34   1
    38     16     35   1
    39     17     36   1
    40     19     37   1
    41     21     38   1
    42     23     39   1
    43     40     41   2
    44     41     42   1
    45     42     43   2
    46     43     44   1
    47     44     45   2
    48     45     40   1
    49     42     46   1
    50     43     47   1
    51     44     48   1
    52     45     49   1
    53     22     40   1
