# Produced with molli package
@<TRIPOS>MOLECULE
F_10_N
47 51 0 0 0
SMALL
USER_CHARGES

@<TRIPOS>ATOM
     1 N      -3.344877     0.568914     1.719300 N          1 UNL1 0.000
     2 C      -4.005336    -0.723447     1.713454 C          1 UNL1 0.000
     3 C      -4.028458     1.841908     1.845151 C          1 UNL1 0.000
     4 C      -5.231594     1.990936     2.555116 C          1 UNL1 0.000
     5 C      -5.879003     3.230243     2.642223 C          1 UNL1 0.000
     6 C      -5.314645     4.360143     2.058126 C          1 UNL1 0.000
     7 C      -4.100863     4.253743     1.390483 C          1 UNL1 0.000
     8 C      -3.469500     3.010510     1.283667 C          1 UNL1 0.000
     9 C      -3.296014    -1.899994     2.024309 C          1 UNL1 0.000
    10 C      -3.921983    -3.150884     2.077022 C          1 UNL1 0.000
    11 C      -5.294594    -3.269482     1.840950 C          1 UNL1 0.000
    12 C      -6.029708    -2.118933     1.494794 C          1 UNL1 0.000
    13 C      -5.367136    -0.876354     1.392497 C          1 UNL1 0.000
    14 C      -5.948791    -4.507771     1.952555 C          1 UNL1 0.000
    15 C      -7.325426    -4.603897     1.748206 C          1 UNL1 0.000
    16 C      -8.057916    -3.468846     1.416824 C          1 UNL1 0.000
    17 C      -7.414368    -2.236320     1.280145 C          1 UNL1 0.000
    18 C      -1.904978     0.604267     1.725615 C          1 UNL1 0.000
    19 C      -1.214407     0.820424     2.926234 C          1 UNL1 0.000
    20 C       0.172840     0.874633     2.919743 C          1 UNL1 0.000
    21 C       0.892574     0.748321     1.737160 C          1 UNL1 0.000
    22 C       0.213118     0.542338     0.532883 C          1 UNL1 0.000
    23 C      -1.184468     0.449448     0.529781 C          1 UNL1 0.000
    24 F       0.829922     1.060735     4.072055 F          1 UNL1 0.000
    25 H      -5.679471     1.147738     3.073616 H          1 UNL1 0.000
    26 H      -6.821588     3.311414     3.177577 H          1 UNL1 0.000
    27 H      -5.813434     5.322824     2.132388 H          1 UNL1 0.000
    28 H      -3.641353     5.133607     0.947483 H          1 UNL1 0.000
    29 H      -2.529881     2.969853     0.738919 H          1 UNL1 0.000
    30 H      -2.234475    -1.871337     2.255609 H          1 UNL1 0.000
    31 H      -3.326823    -4.024639     2.330461 H          1 UNL1 0.000
    32 H      -5.943971    -0.017588     1.060821 H          1 UNL1 0.000
    33 H      -5.391242    -5.403988     2.213382 H          1 UNL1 0.000
    34 H      -7.823818    -5.564113     1.853835 H          1 UNL1 0.000
    35 H      -9.132441    -3.539601     1.268231 H          1 UNL1 0.000
    36 H      -8.006990    -1.360870     1.026071 H          1 UNL1 0.000
    37 H      -1.753714     0.936108     3.861150 H          1 UNL1 0.000
    38 H       1.976199     0.813292     1.768054 H          1 UNL1 0.000
    39 H      -1.726496     0.303309    -0.402428 H          1 UNL1 0.000
    40 C       0.955942     0.484402    -0.713106 C          1 UNL1 0.000
    41 C       1.013517    -0.665338    -1.474309 C          1 UNL1 0.000
    42 S       1.956850    -0.459114    -2.889255 S          1 UNL1 0.000
    43 C       2.291488     1.171668    -2.496913 C          1 UNL1 0.000
    44 C       1.703718     1.547906    -1.309401 C          1 UNL1 0.000
    45 H       0.555504    -1.624426    -1.272628 H          1 UNL1 0.000
    46 H       2.901814     1.775996    -3.154062 H          1 UNL1 0.000
    47 H       1.795770     2.544129    -0.893069 H          1 UNL1 0.000
@<TRIPOS>BOND
     1      1      2   1
     2      1      3   1
     3      3      4   2
     4      4      5   1
     5      5      6   2
     6      6      7   1
     7      7      8   2
     8      8      3   1
     9      2      9   2
    10      9     10   1
    11     10     11   2
    12     11     12   1
    13     12     13   2
    14     13      2   1
    15     11     14   1
    16     14     15   2
    17     15     16   1
    18     16     17   2
    19     17     12   1
    20     18     19   2
    21     19     20   1
    22     20     21   2
    23     21     22   1
    24     22     23   2
    25     23     18   1
    26     20     24   1
    27      1     18   1
    28      4     25   1
    29      5     26   1
    30      6     27   1
    31      7     28   1
    32      8     29   1
    33      9     30   1
    34     10     31   1
    35     13     32   1
    36     14     33   1
    37     15     34   1
    38     16     35   1
    39     17     36   1
    40     19     37   1
    41     21     38   1
    42     23     39   1
    43     40     41   2
    44     41     42   1
    45     42     43   1
    46     43     44   2
    47     44     40   1
    48     41     45   1
    49     43     46   1
    50     44     47   1
    51     22     40   1
