# Produced with molli package
@<TRIPOS>MOLECULE
F_10_R
51 55 0 0 0
SMALL
USER_CHARGES

@<TRIPOS>ATOM
     1 N      -3.264299     0.505280     1.749179 N          1 UNL1 0.000
     2 C      -3.957448    -0.770223     1.765218 C          1 UNL1 0.000
     3 C      -3.912433     1.794789     1.609387 C          1 UNL1 0.000
     4 C      -5.147287     1.957684     0.958947 C          1 UNL1 0.000
     5 C      -5.760221     3.213579     0.856265 C          1 UNL1 0.000
     6 C      -5.131536     4.345813     1.364576 C          1 UNL1 0.000
     7 C      -3.888472     4.224535     1.972670 C          1 UNL1 0.000
     8 C      -3.290657     2.965837     2.095408 C          1 UNL1 0.000
     9 C      -3.293150    -1.955615     1.390920 C          1 UNL1 0.000
    10 C      -3.945364    -3.192567     1.361601 C          1 UNL1 0.000
    11 C      -5.299290    -3.289953     1.689178 C          1 UNL1 0.000
    12 C      -5.990036    -2.129283     2.096581 C          1 UNL1 0.000
    13 C      -5.299755    -0.899334     2.165769 C          1 UNL1 0.000
    14 C      -5.979181    -4.515994     1.612007 C          1 UNL1 0.000
    15 C      -7.338246    -4.594593     1.913468 C          1 UNL1 0.000
    16 C      -8.027520    -3.451715     2.307073 C          1 UNL1 0.000
    17 C      -7.357041    -2.229958     2.407239 C          1 UNL1 0.000
    18 C      -1.824645     0.489079     1.770768 C          1 UNL1 0.000
    19 C      -1.136685     0.310199     2.975691 C          1 UNL1 0.000
    20 C       0.250943     0.285122     2.969732 C          1 UNL1 0.000
    21 C       0.971112     0.407985     1.784942 C          1 UNL1 0.000
    22 C       0.301192     0.567509     0.564089 C          1 UNL1 0.000
    23 C      -1.101066     0.624896     0.572082 C          1 UNL1 0.000
    24 F       0.911751     0.131609     4.124682 F          1 UNL1 0.000
    25 H      -5.650526     1.111969     0.498749 H          1 UNL1 0.000
    26 H      -6.727570     3.304575     0.368639 H          1 UNL1 0.000
    27 H      -5.604376     5.320569     1.278782 H          1 UNL1 0.000
    28 H      -3.380551     5.104771     2.358391 H          1 UNL1 0.000
    29 H      -2.326245     2.916976     2.593972 H          1 UNL1 0.000
    30 H      -2.248476    -1.943764     1.090525 H          1 UNL1 0.000
    31 H      -3.383654    -4.073068     1.057757 H          1 UNL1 0.000
    32 H      -5.835773    -0.031719     2.542068 H          1 UNL1 0.000
    33 H      -5.454547    -5.417992     1.304485 H          1 UNL1 0.000
    34 H      -7.857084    -5.546484     1.836211 H          1 UNL1 0.000
    35 H      -9.088987    -3.509282     2.533459 H          1 UNL1 0.000
    36 H      -7.916754    -1.348764     2.712705 H          1 UNL1 0.000
    37 H      -1.676056     0.198587     3.910649 H          1 UNL1 0.000
    38 H       2.055515     0.350317     1.821476 H          1 UNL1 0.000
    39 H      -1.645642     0.731932    -0.365079 H          1 UNL1 0.000
    40 C       1.041975     0.619678    -0.693970 C          1 UNL1 0.000
    41 N       1.109797    -0.555111    -1.372702 N          1 UNL1 0.000
    42 C       1.807876    -0.571581    -2.534414 C          1 UNL1 0.000
    43 C       2.431807     0.551164    -3.048729 C          1 UNL1 0.000
    44 C       2.351644     1.758843    -2.355916 C          1 UNL1 0.000
    45 C       1.646974     1.789880    -1.152206 C          1 UNL1 0.000
    46 N       3.160269     0.454970    -4.297622 N          1 UNL1 0.000
    47 O       3.674172    -0.635991    -4.577200 O          1 UNL1 0.000
    48 O       3.223511     1.473597    -4.999613 O          1 UNL1 0.000
    49 H       1.835718    -1.536122    -3.035342 H          1 UNL1 0.000
    50 H       2.829766     2.660474    -2.730623 H          1 UNL1 0.000
    51 H       1.570402     2.711863    -0.583145 H          1 UNL1 0.000
@<TRIPOS>BOND
     1      1      2   1
     2      1      3   1
     3      3      4   2
     4      4      5   1
     5      5      6   2
     6      6      7   1
     7      7      8   2
     8      8      3   1
     9      2      9   2
    10      9     10   1
    11     10     11   2
    12     11     12   1
    13     12     13   2
    14     13      2   1
    15     11     14   1
    16     14     15   2
    17     15     16   1
    18     16     17   2
    19     17     12   1
    20     18     19   2
    21     19     20   1
    22     20     21   2
    23     21     22   1
    24     22     23   2
    25     23     18   1
    26     20     24   1
    27      1     18   1
    28      4     25   1
    29      5     26   1
    30      6     27   1
    31      7     28   1
    32      8     29   1
    33      9     30   1
    34     10     31   1
    35     13     32   1
    36     14     33   1
    37     15     34   1
    38     16     35   1
    39     17     36   1
    40     19     37   1
    41     21     38   1
    42     23     39   1
    43     40     41   2
    44     41     42   1
    45     42     43   2
    46     43     44   1
    47     44     45   2
    48     45     40   1
    49     46     47   2
    50     46     48   1
    51     43     46   1
    52     42     49   1
    53     44     50   1
    54     45     51   1
    55     22     40   1
