# Produced with molli package
@<TRIPOS>MOLECULE
F_10_T
53 57 0 0 0
SMALL
USER_CHARGES

@<TRIPOS>ATOM
     1 N      -3.210726     0.454149     1.757888 N          1 UNL1 0.000
     2 C      -3.918754    -0.811332     1.795514 C          1 UNL1 0.000
     3 C      -3.859611     1.739092     1.610334 C          1 UNL1 0.000
     4 C      -5.051903     1.898415     0.883090 C          1 UNL1 0.000
     5 C      -5.677568     3.145972     0.774454 C          1 UNL1 0.000
     6 C      -5.105771     4.269888     1.363010 C          1 UNL1 0.000
     7 C      -3.905019     4.149285     2.053408 C          1 UNL1 0.000
     8 C      -3.290113     2.899086     2.174092 C          1 UNL1 0.000
     9 C      -3.276450    -2.011587     1.436927 C          1 UNL1 0.000
    10 C      -3.952210    -3.236914     1.430136 C          1 UNL1 0.000
    11 C      -5.306902    -3.304163     1.770002 C          1 UNL1 0.000
    12 C      -5.973464    -2.125999     2.161552 C          1 UNL1 0.000
    13 C      -5.263103    -0.907353     2.201433 C          1 UNL1 0.000
    14 C      -6.010523    -4.519046     1.720674 C          1 UNL1 0.000
    15 C      -7.368081    -4.566345     2.038537 C          1 UNL1 0.000
    16 C      -8.032007    -3.404811     2.419267 C          1 UNL1 0.000
    17 C      -7.339007    -2.193792     2.488689 C          1 UNL1 0.000
    18 C      -1.771791     0.434158     1.774318 C          1 UNL1 0.000
    19 C      -1.081210     0.228905     2.973396 C          1 UNL1 0.000
    20 C       0.305511     0.182999     2.960938 C          1 UNL1 0.000
    21 C       1.021067     0.301161     1.773009 C          1 UNL1 0.000
    22 C       0.350510     0.486822     0.555592 C          1 UNL1 0.000
    23 C      -1.050484     0.579760     0.574415 C          1 UNL1 0.000
    24 F       0.968884     0.008460     4.111587 F          1 UNL1 0.000
    25 H      -5.506257     1.052676     0.373502 H          1 UNL1 0.000
    26 H      -6.609637     3.237216     0.222712 H          1 UNL1 0.000
    27 H      -5.590144     5.238925     1.276914 H          1 UNL1 0.000
    28 H      -3.444371     5.024173     2.504949 H          1 UNL1 0.000
    29 H      -2.361300     2.843111     2.735795 H          1 UNL1 0.000
    30 H      -2.233382    -2.019202     1.131448 H          1 UNL1 0.000
    31 H      -3.410233    -4.132455     1.136664 H          1 UNL1 0.000
    32 H      -5.782136    -0.021155     2.557046 H          1 UNL1 0.000
    33 H      -5.506753    -5.435703     1.423919 H          1 UNL1 0.000
    34 H      -7.905252    -5.509750     1.984502 H          1 UNL1 0.000
    35 H      -9.091488    -3.438280     2.660001 H          1 UNL1 0.000
    36 H      -7.877916    -1.297045     2.784604 H          1 UNL1 0.000
    37 H      -1.617430     0.114740     3.909686 H          1 UNL1 0.000
    38 H       2.105750     0.241637     1.805477 H          1 UNL1 0.000
    39 H      -1.598529     0.713906    -0.357144 H          1 UNL1 0.000
    40 C       1.093268     0.532487    -0.708681 C          1 UNL1 0.000
    41 C       1.770557    -0.605310    -1.175085 C          1 UNL1 0.000
    42 C       2.484056    -0.577825    -2.376593 C          1 UNL1 0.000
    43 C       2.540450     0.592877    -3.137487 C          1 UNL1 0.000
    44 C       1.862990     1.730262    -2.683120 C          1 UNL1 0.000
    45 C       1.144408     1.699008    -1.483086 C          1 UNL1 0.000
    46 C       3.308999     0.638915    -4.424713 C          1 UNL1 0.000
    47 H       1.738116    -1.531441    -0.604309 H          1 UNL1 0.000
    48 H       2.993710    -1.478866    -2.710163 H          1 UNL1 0.000
    49 H       1.892351     2.651434    -3.261000 H          1 UNL1 0.000
    50 H       0.630802     2.598720    -1.150486 H          1 UNL1 0.000
    51 H       4.079896     1.414706    -4.376206 H          1 UNL1 0.000
    52 H       2.634398     0.851569    -5.260021 H          1 UNL1 0.000
    53 H       3.807760    -0.314452    -4.628982 H          1 UNL1 0.000
@<TRIPOS>BOND
     1      1      2   1
     2      1      3   1
     3      3      4   2
     4      4      5   1
     5      5      6   2
     6      6      7   1
     7      7      8   2
     8      8      3   1
     9      2      9   2
    10      9     10   1
    11     10     11   2
    12     11     12   1
    13     12     13   2
    14     13      2   1
    15     11     14   1
    16     14     15   2
    17     15     16   1
    18     16     17   2
    19     17     12   1
    20     18     19   2
    21     19     20   1
    22     20     21   2
    23     21     22   1
    24     22     23   2
    25     23     18   1
    26     20     24   1
    27      1     18   1
    28      4     25   1
    29      5     26   1
    30      6     27   1
    31      7     28   1
    32      8     29   1
    33      9     30   1
    34     10     31   1
    35     13     32   1
    36     14     33   1
    37     15     34   1
    38     16     35   1
    39     17     36   1
    40     19     37   1
    41     21     38   1
    42     23     39   1
    43     40     41   2
    44     41     42   1
    45     42     43   2
    46     43     44   1
    47     44     45   2
    48     45     40   1
    49     43     46   1
    50     41     47   1
    51     42     48   1
    52     44     49   1
    53     45     50   1
    54     46     51   1
    55     46     52   1
    56     46     53   1
    57     22     40   1
