# Produced with molli package
@<TRIPOS>MOLECULE
F_10_M
51 55 0 0 0
SMALL
USER_CHARGES

@<TRIPOS>ATOM
     1 N      -3.270972     0.526886     1.741414 N          1 UNL1 0.000
     2 C      -3.966442    -0.754533     1.789482 C          1 UNL1 0.000
     3 C      -3.888892     1.844600     1.672355 C          1 UNL1 0.000
     4 C      -5.213622     2.068158     1.264356 C          1 UNL1 0.000
     5 C      -5.798760     3.343616     1.307920 C          1 UNL1 0.000
     6 C      -5.046669     4.451324     1.678902 C          1 UNL1 0.000
     7 C      -3.706308     4.285543     1.992965 C          1 UNL1 0.000
     8 C      -3.142938     3.003674     1.996909 C          1 UNL1 0.000
     9 C      -3.272755    -1.955391     1.517649 C          1 UNL1 0.000
    10 C      -3.909840    -3.201818     1.485407 C          1 UNL1 0.000
    11 C      -5.287919    -3.296735     1.677003 C          1 UNL1 0.000
    12 C      -6.011389    -2.128408     1.988010 C          1 UNL1 0.000
    13 C      -5.326653    -0.896948     2.110363 C          1 UNL1 0.000
    14 C      -5.959713    -4.523847     1.551750 C          1 UNL1 0.000
    15 C      -7.345819    -4.590736     1.686764 C          1 UNL1 0.000
    16 C      -8.069647    -3.437120     1.971261 C          1 UNL1 0.000
    17 C      -7.406188    -2.218842     2.139141 C          1 UNL1 0.000
    18 C      -1.827012     0.485608     1.751302 C          1 UNL1 0.000
    19 C      -1.138676     0.346079     2.962648 C          1 UNL1 0.000
    20 C       0.247020     0.296331     2.954771 C          1 UNL1 0.000
    21 C       0.964016     0.356319     1.763412 C          1 UNL1 0.000
    22 C       0.296415     0.481386     0.536021 C          1 UNL1 0.000
    23 C      -1.105317     0.564950     0.543877 C          1 UNL1 0.000
    24 F       0.909073     0.182478     4.113429 F          1 UNL1 0.000
    25 H      -5.830901     1.265460     0.876979 H          1 UNL1 0.000
    26 H      -6.845074     3.467284     1.039234 H          1 UNL1 0.000
    27 H      -5.497229     5.439695     1.704780 H          1 UNL1 0.000
    28 H      -3.092894     5.146349     2.246577 H          1 UNL1 0.000
    29 H      -2.093479     2.937875     2.270989 H          1 UNL1 0.000
    30 H      -2.206800    -1.955414     1.307133 H          1 UNL1 0.000
    31 H      -3.317752    -4.088567     1.271102 H          1 UNL1 0.000
    32 H      -5.897530    -0.047417     2.469191 H          1 UNL1 0.000
    33 H      -5.407926    -5.433700     1.325959 H          1 UNL1 0.000
    34 H      -7.858865    -5.540507     1.559986 H          1 UNL1 0.000
    35 H      -9.152277    -3.482831     2.056546 H          1 UNL1 0.000
    36 H      -7.993715    -1.328877     2.353522 H          1 UNL1 0.000
    37 H      -1.677903     0.287666     3.902524 H          1 UNL1 0.000
    38 H       2.048931     0.303733     1.803194 H          1 UNL1 0.000
    39 H      -1.653278     0.656054    -0.392813 H          1 UNL1 0.000
    40 C       1.052953     0.492854    -0.720128 C          1 UNL1 0.000
    41 C       1.184533     1.665793    -1.477796 C          1 UNL1 0.000
    42 C       1.938018     1.674908    -2.657468 C          1 UNL1 0.000
    43 C       2.565081     0.506517    -3.100212 C          1 UNL1 0.000
    44 C       2.431583    -0.671266    -2.361167 C          1 UNL1 0.000
    45 C       1.682599    -0.675437    -1.180357 C          1 UNL1 0.000
    46 C       3.346977     0.515903    -4.303506 C          1 UNL1 0.000
    47 N       3.981968     0.520894    -5.272664 N          1 UNL1 0.000
    48 H       0.711060     2.587613    -1.143740 H          1 UNL1 0.000
    49 H       2.034878     2.601016    -3.221382 H          1 UNL1 0.000
    50 H       2.909947    -1.591026    -2.693193 H          1 UNL1 0.000
    51 H       1.590490    -1.602603    -0.616483 H          1 UNL1 0.000
@<TRIPOS>BOND
     1      1      2   1
     2      1      3   1
     3      3      4   2
     4      4      5   1
     5      5      6   2
     6      6      7   1
     7      7      8   2
     8      8      3   1
     9      2      9   2
    10      9     10   1
    11     10     11   2
    12     11     12   1
    13     12     13   2
    14     13      2   1
    15     11     14   1
    16     14     15   2
    17     15     16   1
    18     16     17   2
    19     17     12   1
    20     18     19   2
    21     19     20   1
    22     20     21   2
    23     21     22   1
    24     22     23   2
    25     23     18   1
    26     20     24   1
    27      1     18   1
    28      4     25   1
    29      5     26   1
    30      6     27   1
    31      7     28   1
    32      8     29   1
    33      9     30   1
    34     10     31   1
    35     13     32   1
    36     14     33   1
    37     15     34   1
    38     16     35   1
    39     17     36   1
    40     19     37   1
    41     21     38   1
    42     23     39   1
    43     40     41   2
    44     41     42   1
    45     42     43   2
    46     43     44   1
    47     44     45   2
    48     45     40   1
    49     46     47   3
    50     43     46   1
    51     41     48   1
    52     42     49   1
    53     44     50   1
    54     45     51   1
    55     22     40   1
