# Produced with molli package
@<TRIPOS>MOLECULE
F_1_Q
48 52 0 0 0
SMALL
USER_CHARGES

@<TRIPOS>ATOM
     1 N      -3.949248     0.496100     0.406856 N          1 UNL1 0.000
     2 C      -4.645829    -0.777766     0.377492 C          1 UNL1 0.000
     3 C      -4.595353     1.789394     0.524066 C          1 UNL1 0.000
     4 C      -5.817332     1.974401     1.191486 C          1 UNL1 0.000
     5 C      -6.428144     3.233459     1.261018 C          1 UNL1 0.000
     6 C      -5.806419     4.347760     0.705827 C          1 UNL1 0.000
     7 C      -4.571550     4.206081     0.085263 C          1 UNL1 0.000
     8 C      -3.978075     2.943250    -0.007019 C          1 UNL1 0.000
     9 C      -3.971771    -1.976574     0.684759 C          1 UNL1 0.000
    10 C      -4.629787    -3.211519     0.716165 C          1 UNL1 0.000
    11 C      -6.002702    -3.291065     0.468053 C          1 UNL1 0.000
    12 C      -6.703835    -2.117542     0.127722 C          1 UNL1 0.000
    13 C      -6.007074    -0.892444     0.040407 C          1 UNL1 0.000
    14 C      -6.690812    -4.512134     0.563151 C          1 UNL1 0.000
    15 C      -8.068500    -4.568495     0.351666 C          1 UNL1 0.000
    16 C      -8.767969    -3.410487     0.028126 C          1 UNL1 0.000
    17 C      -8.089916    -2.195151    -0.094991 C          1 UNL1 0.000
    18 C      -2.509274     0.486820     0.438220 C          1 UNL1 0.000
    19 C      -1.831760     0.738135     1.640193 C          1 UNL1 0.000
    20 C      -0.435818     0.738456     1.676029 C          1 UNL1 0.000
    21 C       0.311755     0.502816     0.510936 C          1 UNL1 0.000
    22 C      -0.374099     0.240761    -0.686532 C          1 UNL1 0.000
    23 C      -1.771364     0.229357    -0.724716 C          1 UNL1 0.000
    24 H      -6.310356     1.144389     1.689535 H          1 UNL1 0.000
    25 H      -7.387919     3.341664     1.759717 H          1 UNL1 0.000
    26 H      -6.277273     5.325285     0.766269 H          1 UNL1 0.000
    27 H      -4.066454     5.072755    -0.333169 H          1 UNL1 0.000
    28 H      -3.019509     2.872964    -0.515156 H          1 UNL1 0.000
    29 H      -2.911698    -1.977526     0.927267 H          1 UNL1 0.000
    30 H      -4.058562    -4.102757     0.963761 H          1 UNL1 0.000
    31 H      -6.557412    -0.017068    -0.291956 H          1 UNL1 0.000
    32 H      -6.158835    -5.425546     0.817894 H          1 UNL1 0.000
    33 H      -8.593523    -5.515504     0.446277 H          1 UNL1 0.000
    34 H      -9.843434    -3.449926    -0.124700 H          1 UNL1 0.000
    35 H      -8.656872    -1.301173    -0.343089 H          1 UNL1 0.000
    36 H      -2.397134     0.914371     2.552195 H          1 UNL1 0.000
    37 H       0.067296     0.911105     2.625584 H          1 UNL1 0.000
    38 H       0.184539     0.048329    -1.600790 H          1 UNL1 0.000
    39 H      -2.287309     0.036381    -1.661876 H          1 UNL1 0.000
    40 C       1.772434     0.539885     0.541347 C          1 UNL1 0.000
    41 N       2.413306    -0.649070     0.409532 N          1 UNL1 0.000
    42 C       3.764759    -0.596657     0.458472 C          1 UNL1 0.000
    43 C       4.460268     0.590183     0.618290 C          1 UNL1 0.000
    44 N       3.837635     1.782911     0.740584 N          1 UNL1 0.000
    45 C       2.483076     1.728387     0.700483 C          1 UNL1 0.000
    46 H       4.279513    -1.546235     0.367149 H          1 UNL1 0.000
    47 H       5.543427     0.612652     0.652646 H          1 UNL1 0.000
    48 H       1.974981     2.682595     0.794149 H          1 UNL1 0.000
@<TRIPOS>BOND
     1      1      2   1
     2      1      3   1
     3      3      4   2
     4      4      5   1
     5      5      6   2
     6      6      7   1
     7      7      8   2
     8      8      3   1
     9      2      9   2
    10      9     10   1
    11     10     11   2
    12     11     12   1
    13     12     13   2
    14     13      2   1
    15     11     14   1
    16     14     15   2
    17     15     16   1
    18     16     17   2
    19     17     12   1
    20     18     19   2
    21     19     20   1
    22     20     21   2
    23     21     22   1
    24     22     23   2
    25     23     18   1
    26      1     18   1
    27      4     24   1
    28      5     25   1
    29      6     26   1
    30      7     27   1
    31      8     28   1
    32      9     29   1
    33     10     30   1
    34     13     31   1
    35     14     32   1
    36     15     33   1
    37     16     34   1
    38     17     35   1
    39     19     36   1
    40     20     37   1
    41     22     38   1
    42     23     39   1
    43     40     41   2
    44     41     42   1
    45     42     43   2
    46     43     44   1
    47     44     45   2
    48     45     40   1
    49     42     46   1
    50     43     47   1
    51     45     48   1
    52     21     40   1
