# Produced with molli package
@<TRIPOS>MOLECULE
F_1_M
51 55 0 0 0
SMALL
USER_CHARGES

@<TRIPOS>ATOM
     1 N      -4.002944     0.502470     0.571743 N          1 UNL1 0.000
     2 C      -4.710535    -0.764088     0.486001 C          1 UNL1 0.000
     3 C      -4.645663     1.799404     0.695828 C          1 UNL1 0.000
     4 C      -5.915922     1.969779     1.273312 C          1 UNL1 0.000
     5 C      -6.551550     3.218122     1.296280 C          1 UNL1 0.000
     6 C      -5.902110     4.343967     0.802549 C          1 UNL1 0.000
     7 C      -4.611881     4.224589     0.301917 C          1 UNL1 0.000
     8 C      -3.995302     2.969625     0.247674 C          1 UNL1 0.000
     9 C      -4.060204    -1.978925     0.780318 C          1 UNL1 0.000
    10 C      -4.739227    -3.204198     0.769732 C          1 UNL1 0.000
    11 C      -6.109782    -3.257464     0.498085 C          1 UNL1 0.000
    12 C      -6.783762    -2.065189     0.166827 C          1 UNL1 0.000
    13 C      -6.062332    -0.855310     0.107799 C          1 UNL1 0.000
    14 C      -6.826873    -4.463890     0.561512 C          1 UNL1 0.000
    15 C      -8.203936    -4.485782     0.336945 C          1 UNL1 0.000
    16 C      -8.875502    -3.306681     0.029193 C          1 UNL1 0.000
    17 C      -8.168236    -2.107056    -0.069844 C          1 UNL1 0.000
    18 C      -2.562717     0.478481     0.566567 C          1 UNL1 0.000
    19 C      -1.848761     0.629925     1.763720 C          1 UNL1 0.000
    20 C      -0.451322     0.621038     1.757071 C          1 UNL1 0.000
    21 C       0.259239     0.479041     0.555296 C          1 UNL1 0.000
    22 C      -0.460871     0.330270    -0.639982 C          1 UNL1 0.000
    23 C      -1.858878     0.319724    -0.635294 C          1 UNL1 0.000
    24 H      -6.439219     1.132758     1.726717 H          1 UNL1 0.000
    25 H      -7.554686     3.306383     1.705631 H          1 UNL1 0.000
    26 H      -6.394005     5.312673     0.820120 H          1 UNL1 0.000
    27 H      -4.082352     5.102458    -0.058900 H          1 UNL1 0.000
    28 H      -2.993708     2.923613    -0.171768 H          1 UNL1 0.000
    29 H      -3.006626    -1.998819     1.047058 H          1 UNL1 0.000
    30 H      -4.188508    -4.110791     1.009963 H          1 UNL1 0.000
    31 H      -6.590153     0.030653    -0.233583 H          1 UNL1 0.000
    32 H      -6.318544    -5.394114     0.804982 H          1 UNL1 0.000
    33 H      -8.751876    -5.421494     0.410837 H          1 UNL1 0.000
    34 H      -9.950774    -3.317747    -0.128878 H          1 UNL1 0.000
    35 H      -8.712745    -1.194970    -0.304469 H          1 UNL1 0.000
    36 H      -2.385143     0.742119     2.702733 H          1 UNL1 0.000
    37 H       0.083615     0.725883     2.698940 H          1 UNL1 0.000
    38 H       0.066306     0.229825    -1.586557 H          1 UNL1 0.000
    39 H      -2.403924     0.213517    -1.569886 H          1 UNL1 0.000
    40 C       1.724248     0.488897     0.551791 C          1 UNL1 0.000
    41 C       2.448297    -0.712575     0.540196 C          1 UNL1 0.000
    42 C       3.846903    -0.705174     0.552237 C          1 UNL1 0.000
    43 C       4.541402     0.507653     0.573035 C          1 UNL1 0.000
    44 C       3.831138     1.711395     0.578878 C          1 UNL1 0.000
    45 C       2.432473     1.700172     0.569488 C          1 UNL1 0.000
    46 C       5.976010     0.516559     0.592212 C          1 UNL1 0.000
    47 N       7.134890     0.523306     0.609755 N          1 UNL1 0.000
    48 H       1.920738    -1.664967     0.529015 H          1 UNL1 0.000
    49 H       4.385278    -1.651156     0.548501 H          1 UNL1 0.000
    50 H       4.357045     2.664321     0.593079 H          1 UNL1 0.000
    51 H       1.892486     2.645743     0.575788 H          1 UNL1 0.000
@<TRIPOS>BOND
     1      1      2   1
     2      1      3   1
     3      3      4   2
     4      4      5   1
     5      5      6   2
     6      6      7   1
     7      7      8   2
     8      8      3   1
     9      2      9   2
    10      9     10   1
    11     10     11   2
    12     11     12   1
    13     12     13   2
    14     13      2   1
    15     11     14   1
    16     14     15   2
    17     15     16   1
    18     16     17   2
    19     17     12   1
    20     18     19   2
    21     19     20   1
    22     20     21   2
    23     21     22   1
    24     22     23   2
    25     23     18   1
    26      1     18   1
    27      4     24   1
    28      5     25   1
    29      6     26   1
    30      7     27   1
    31      8     28   1
    32      9     29   1
    33     10     30   1
    34     13     31   1
    35     14     32   1
    36     15     33   1
    37     16     34   1
    38     17     35   1
    39     19     36   1
    40     20     37   1
    41     22     38   1
    42     23     39   1
    43     40     41   2
    44     41     42   1
    45     42     43   2
    46     43     44   1
    47     44     45   2
    48     45     40   1
    49     46     47   3
    50     43     46   1
    51     41     48   1
    52     42     49   1
    53     44     50   1
    54     45     51   1
    55     21     40   1
