# Produced with molli package
@<TRIPOS>MOLECULE
F_1_N
47 51 0 0 0
SMALL
USER_CHARGES

@<TRIPOS>ATOM
     1 N      -4.034986     0.451841     0.642533 N          1 UNL1 0.000
     2 C      -4.731906    -0.821096     0.689131 C          1 UNL1 0.000
     3 C      -4.683563     1.741499     0.511962 C          1 UNL1 0.000
     4 C      -5.879009     1.922906    -0.202718 C          1 UNL1 0.000
     5 C      -6.495832     3.177892    -0.284452 C          1 UNL1 0.000
     6 C      -5.906141     4.290294     0.308787 C          1 UNL1 0.000
     7 C      -4.696310     4.151291     0.978060 C          1 UNL1 0.000
     8 C      -4.095858     2.892730     1.079369 C          1 UNL1 0.000
     9 C      -4.051059    -2.028255     0.435670 C          1 UNL1 0.000
    10 C      -4.708453    -3.264296     0.427912 C          1 UNL1 0.000
    11 C      -6.087530    -3.336900     0.644245 C          1 UNL1 0.000
    12 C      -6.796868    -2.153489     0.926263 C          1 UNL1 0.000
    13 C      -6.102296    -0.925934     0.992003 C          1 UNL1 0.000
    14 C      -6.773548    -4.561081     0.573961 C          1 UNL1 0.000
    15 C      -8.156447    -4.610642     0.751710 C          1 UNL1 0.000
    16 C      -8.863743    -3.442504     1.015840 C          1 UNL1 0.000
    17 C      -8.188572    -2.223435     1.114511 C          1 UNL1 0.000
    18 C      -2.594661     0.448571     0.617377 C          1 UNL1 0.000
    19 C      -1.860959     0.212855     1.789560 C          1 UNL1 0.000
    20 C      -0.464592     0.234705     1.760164 C          1 UNL1 0.000
    21 C       0.208689     0.476083     0.556466 C          1 UNL1 0.000
    22 C      -0.518194     0.701003    -0.617268 C          1 UNL1 0.000
    23 C      -1.913519     0.692779    -0.585907 C          1 UNL1 0.000
    24 H      -6.343901     1.092038    -0.726156 H          1 UNL1 0.000
    25 H      -7.434891     3.284822    -0.821320 H          1 UNL1 0.000
    26 H      -6.382130     5.264819     0.240417 H          1 UNL1 0.000
    27 H      -4.216383     5.016826     1.427331 H          1 UNL1 0.000
    28 H      -3.157660     2.822285     1.624268 H          1 UNL1 0.000
    29 H      -2.985584    -2.035756     0.219412 H          1 UNL1 0.000
    30 H      -4.132002    -4.163010     0.223838 H          1 UNL1 0.000
    31 H      -6.662331    -0.041253     1.280067 H          1 UNL1 0.000
    32 H      -6.235856    -5.482643     0.365269 H          1 UNL1 0.000
    33 H      -8.679335    -5.560650     0.676958 H          1 UNL1 0.000
    34 H      -9.942942    -3.476848     1.141502 H          1 UNL1 0.000
    35 H      -8.761293    -1.321581     1.316288 H          1 UNL1 0.000
    36 H      -2.381903     0.036097     2.727129 H          1 UNL1 0.000
    37 H       0.091864     0.076669     2.681000 H          1 UNL1 0.000
    38 H      -0.005682     0.879300    -1.559628 H          1 UNL1 0.000
    39 H      -2.476408     0.863490    -1.500373 H          1 UNL1 0.000
    40 C       1.658891     0.517445     0.525774 C          1 UNL1 0.000
    41 C       2.415103    -0.632533     0.630483 C          1 UNL1 0.000
    42 S       4.095667    -0.310978     0.559867 S          1 UNL1 0.000
    43 C       3.823321     1.369040     0.386374 C          1 UNL1 0.000
    44 C       2.480572     1.677024     0.376563 C          1 UNL1 0.000
    45 H       2.067867    -1.651266     0.739710 H          1 UNL1 0.000
    46 H       4.659364     2.049177     0.298916 H          1 UNL1 0.000
    47 H       2.103892     2.687936     0.276509 H          1 UNL1 0.000
@<TRIPOS>BOND
     1      1      2   1
     2      1      3   1
     3      3      4   2
     4      4      5   1
     5      5      6   2
     6      6      7   1
     7      7      8   2
     8      8      3   1
     9      2      9   2
    10      9     10   1
    11     10     11   2
    12     11     12   1
    13     12     13   2
    14     13      2   1
    15     11     14   1
    16     14     15   2
    17     15     16   1
    18     16     17   2
    19     17     12   1
    20     18     19   2
    21     19     20   1
    22     20     21   2
    23     21     22   1
    24     22     23   2
    25     23     18   1
    26      1     18   1
    27      4     24   1
    28      5     25   1
    29      6     26   1
    30      7     27   1
    31      8     28   1
    32      9     29   1
    33     10     30   1
    34     13     31   1
    35     14     32   1
    36     15     33   1
    37     16     34   1
    38     17     35   1
    39     19     36   1
    40     20     37   1
    41     22     38   1
    42     23     39   1
    43     40     41   2
    44     41     42   1
    45     42     43   1
    46     43     44   2
    47     44     40   1
    48     41     45   1
    49     43     46   1
    50     44     47   1
    51     21     40   1
