# Produced with molli package
@<TRIPOS>MOLECULE
F_1_R
51 55 0 0 0
SMALL
USER_CHARGES

@<TRIPOS>ATOM
     1 N      -3.942166     0.465904     0.496509 N          1 UNL1 0.000
     2 C      -4.658402    -0.792342     0.491041 C          1 UNL1 0.000
     3 C      -4.601385     1.749899     0.610786 C          1 UNL1 0.000
     4 C      -5.784667     1.921660     1.348867 C          1 UNL1 0.000
     5 C      -6.402505     3.173508     1.445469 C          1 UNL1 0.000
     6 C      -5.835537     4.284747     0.827071 C          1 UNL1 0.000
     7 C      -4.650632     4.147088     0.111913 C          1 UNL1 0.000
     8 C      -4.042735     2.893289     0.003626 C          1 UNL1 0.000
     9 C      -4.057556    -1.969447     0.972975 C          1 UNL1 0.000
    10 C      -4.755247    -3.180973     1.021436 C          1 UNL1 0.000
    11 C      -6.087876    -3.254229     0.602282 C          1 UNL1 0.000
    12 C      -6.710270    -2.095906     0.090480 C          1 UNL1 0.000
    13 C      -5.978891    -0.893853     0.015211 C          1 UNL1 0.000
    14 C      -6.816770    -4.451315     0.689882 C          1 UNL1 0.000
    15 C      -8.152629    -4.501854     0.290846 C          1 UNL1 0.000
    16 C      -8.770898    -3.360202    -0.209938 C          1 UNL1 0.000
    17 C      -8.053162    -2.167102    -0.316357 C          1 UNL1 0.000
    18 C      -2.502853     0.453632     0.512714 C          1 UNL1 0.000
    19 C      -1.806637     0.957834     1.620151 C          1 UNL1 0.000
    20 C      -0.409859     0.970365     1.635658 C          1 UNL1 0.000
    21 C       0.332104     0.494564     0.540922 C          1 UNL1 0.000
    22 C      -0.375713    -0.026830    -0.556371 C          1 UNL1 0.000
    23 C      -1.775154    -0.050001    -0.572638 C          1 UNL1 0.000
    24 H      -6.232857     1.083982     1.877043 H          1 UNL1 0.000
    25 H      -7.323963     3.278972     2.012229 H          1 UNL1 0.000
    26 H      -6.313358     5.257580     0.907165 H          1 UNL1 0.000
    27 H      -4.196991     5.011370    -0.366022 H          1 UNL1 0.000
    28 H      -3.125352     2.814471    -0.575207 H          1 UNL1 0.000
    29 H      -3.036644    -1.959842     1.347254 H          1 UNL1 0.000
    30 H      -4.249116    -4.061185     1.411368 H          1 UNL1 0.000
    31 H      -6.459752    -0.019909    -0.418485 H          1 UNL1 0.000
    32 H      -6.349531    -5.352527     1.080632 H          1 UNL1 0.000
    33 H      -8.709523    -5.431369     0.374978 H          1 UNL1 0.000
    34 H      -9.813371    -3.395843    -0.515224 H          1 UNL1 0.000
    35 H      -8.556026    -1.284843    -0.706282 H          1 UNL1 0.000
    36 H      -2.357031     1.326194     2.482838 H          1 UNL1 0.000
    37 H       0.094106     1.344724     2.524181 H          1 UNL1 0.000
    38 H       0.168679    -0.410626    -1.417985 H          1 UNL1 0.000
    39 H      -2.297143    -0.440571    -1.442769 H          1 UNL1 0.000
    40 C       1.802587     0.543820     0.538535 C          1 UNL1 0.000
    41 N       2.437296    -0.579510     0.110810 N          1 UNL1 0.000
    42 C       3.794421    -0.583882     0.116400 C          1 UNL1 0.000
    43 C       4.551054     0.501339     0.523282 C          1 UNL1 0.000
    44 C       3.902003     1.660868     0.944076 C          1 UNL1 0.000
    45 C       2.507311     1.678614     0.950604 C          1 UNL1 0.000
    46 N       6.001662     0.421077     0.510892 N          1 UNL1 0.000
    47 O       6.628105     1.273287     1.153053 O          1 UNL1 0.000
    48 O       6.521125    -0.495648    -0.142718 O          1 UNL1 0.000
    49 H       4.242990    -1.515906    -0.219076 H          1 UNL1 0.000
    50 H       4.454692     2.541919     1.260389 H          1 UNL1 0.000
    51 H       1.980071     2.575889     1.262835 H          1 UNL1 0.000
@<TRIPOS>BOND
     1      1      2   1
     2      1      3   1
     3      3      4   2
     4      4      5   1
     5      5      6   2
     6      6      7   1
     7      7      8   2
     8      8      3   1
     9      2      9   2
    10      9     10   1
    11     10     11   2
    12     11     12   1
    13     12     13   2
    14     13      2   1
    15     11     14   1
    16     14     15   2
    17     15     16   1
    18     16     17   2
    19     17     12   1
    20     18     19   2
    21     19     20   1
    22     20     21   2
    23     21     22   1
    24     22     23   2
    25     23     18   1
    26      1     18   1
    27      4     24   1
    28      5     25   1
    29      6     26   1
    30      7     27   1
    31      8     28   1
    32      9     29   1
    33     10     30   1
    34     13     31   1
    35     14     32   1
    36     15     33   1
    37     16     34   1
    38     17     35   1
    39     19     36   1
    40     20     37   1
    41     22     38   1
    42     23     39   1
    43     40     41   2
    44     41     42   1
    45     42     43   2
    46     43     44   1
    47     44     45   2
    48     45     40   1
    49     46     47   2
    50     46     48   1
    51     43     46   1
    52     42     49   1
    53     44     50   1
    54     45     51   1
    55     21     40   1
