# Produced with molli package
@<TRIPOS>MOLECULE
F_1_O
49 53 0 0 0
SMALL
USER_CHARGES

@<TRIPOS>ATOM
     1 N      -4.011404     0.578953     0.470277 N          1 UNL1 0.000
     2 C      -4.715565    -0.688777     0.512197 C          1 UNL1 0.000
     3 C      -4.659881     1.868169     0.349625 C          1 UNL1 0.000
     4 C      -5.852749     2.048783    -0.370515 C          1 UNL1 0.000
     5 C      -6.478046     3.299708    -0.441767 C          1 UNL1 0.000
     6 C      -5.902026     4.407789     0.172665 C          1 UNL1 0.000
     7 C      -4.696407     4.268823     0.850370 C          1 UNL1 0.000
     8 C      -4.084498     3.014571     0.936739 C          1 UNL1 0.000
     9 C      -4.054225    -1.894445     0.207942 C          1 UNL1 0.000
    10 C      -4.722475    -3.124312     0.205511 C          1 UNL1 0.000
    11 C      -6.090077    -3.192081     0.487501 C          1 UNL1 0.000
    12 C      -6.778191    -2.007989     0.820440 C          1 UNL1 0.000
    13 C      -6.074074    -0.786301     0.866514 C          1 UNL1 0.000
    14 C      -6.786926    -4.410700     0.437896 C          1 UNL1 0.000
    15 C      -8.157908    -4.456089     0.692213 C          1 UNL1 0.000
    16 C      -8.843327    -3.287856     1.009967 C          1 UNL1 0.000
    17 C      -8.157431    -2.073381     1.083099 C          1 UNL1 0.000
    18 C      -2.572342     0.567439     0.473421 C          1 UNL1 0.000
    19 C      -1.864452     0.334193     1.659912 C          1 UNL1 0.000
    20 C      -0.466962     0.335124     1.655784 C          1 UNL1 0.000
    21 C       0.249864     0.558126     0.468974 C          1 UNL1 0.000
    22 C      -0.467258     0.771490    -0.719100 C          1 UNL1 0.000
    23 C      -1.864237     0.785122    -0.717228 C          1 UNL1 0.000
    24 H      -6.308690     1.217860    -0.902266 H          1 UNL1 0.000
    25 H      -7.413673     3.406256    -0.984576 H          1 UNL1 0.000
    26 H      -6.386287     5.378953     0.115700 H          1 UNL1 0.000
    27 H      -4.229637     5.131181     1.319079 H          1 UNL1 0.000
    28 H      -3.151052     2.942235     1.489197 H          1 UNL1 0.000
    29 H      -2.998137    -1.903298    -0.051497 H          1 UNL1 0.000
    30 H      -4.162271    -4.023347    -0.040100 H          1 UNL1 0.000
    31 H      -6.613134     0.101165     1.186454 H          1 UNL1 0.000
    32 H      -6.266194    -5.332458     0.189301 H          1 UNL1 0.000
    33 H      -8.688958    -5.402768     0.637164 H          1 UNL1 0.000
    34 H      -9.913260    -3.319174     1.198561 H          1 UNL1 0.000
    35 H      -8.712505    -1.171103     1.328966 H          1 UNL1 0.000
    36 H      -2.403698     0.167257     2.588663 H          1 UNL1 0.000
    37 H       0.069925     0.162263     2.586508 H          1 UNL1 0.000
    38 H       0.063528     0.914310    -1.658108 H          1 UNL1 0.000
    39 H      -2.405302     0.941747    -1.647063 H          1 UNL1 0.000
    40 C       1.713647     0.575694     0.475389 C          1 UNL1 0.000
    41 N       2.318984    -0.626723     0.629938 N          1 UNL1 0.000
    42 C       3.669804    -0.642994     0.634513 C          1 UNL1 0.000
    43 C       4.456231     0.489628     0.506087 C          1 UNL1 0.000
    44 C       3.820927     1.716278     0.358924 C          1 UNL1 0.000
    45 C       2.429749     1.763298     0.338204 C          1 UNL1 0.000
    46 H       4.118476    -1.625676     0.748297 H          1 UNL1 0.000
    47 H       5.537766     0.416836     0.521951 H          1 UNL1 0.000
    48 H       4.401555     2.629017     0.262151 H          1 UNL1 0.000
    49 H       1.912993     2.711299     0.228215 H          1 UNL1 0.000
@<TRIPOS>BOND
     1      1      2   1
     2      1      3   1
     3      3      4   2
     4      4      5   1
     5      5      6   2
     6      6      7   1
     7      7      8   2
     8      8      3   1
     9      2      9   2
    10      9     10   1
    11     10     11   2
    12     11     12   1
    13     12     13   2
    14     13      2   1
    15     11     14   1
    16     14     15   2
    17     15     16   1
    18     16     17   2
    19     17     12   1
    20     18     19   2
    21     19     20   1
    22     20     21   2
    23     21     22   1
    24     22     23   2
    25     23     18   1
    26      1     18   1
    27      4     24   1
    28      5     25   1
    29      6     26   1
    30      7     27   1
    31      8     28   1
    32      9     29   1
    33     10     30   1
    34     13     31   1
    35     14     32   1
    36     15     33   1
    37     16     34   1
    38     17     35   1
    39     19     36   1
    40     20     37   1
    41     22     38   1
    42     23     39   1
    43     40     41   2
    44     41     42   1
    45     42     43   2
    46     43     44   1
    47     44     45   2
    48     45     40   1
    49     42     46   1
    50     43     47   1
    51     44     48   1
    52     45     49   1
    53     21     40   1
