# Produced with molli package
@<TRIPOS>MOLECULE
F_1_L
54 59 0 0 0
SMALL
USER_CHARGES

@<TRIPOS>ATOM
     1 N      -3.954367     0.458551     0.544949 N          1 UNL1 0.000
     2 C      -4.637187    -0.821982     0.564823 C          1 UNL1 0.000
     3 C      -4.618022     1.741386     0.413069 C          1 UNL1 0.000
     4 C      -5.846570     1.896363    -0.251425 C          1 UNL1 0.000
     5 C      -6.481781     3.142261    -0.333307 C          1 UNL1 0.000
     6 C      -5.879742     4.273774     0.207827 C          1 UNL1 0.000
     7 C      -4.639538     4.162253     0.824183 C          1 UNL1 0.000
     8 C      -4.020059     2.912472     0.926573 C          1 UNL1 0.000
     9 C      -3.961612    -2.007280     0.215086 C          1 UNL1 0.000
    10 C      -4.613140    -3.245402     0.171054 C          1 UNL1 0.000
    11 C      -5.978215    -3.341174     0.457354 C          1 UNL1 0.000
    12 C      -6.677257    -2.181363     0.846226 C          1 UNL1 0.000
    13 C      -5.987972    -0.953066     0.936759 C          1 UNL1 0.000
    14 C      -6.661271    -4.564601     0.354876 C          1 UNL1 0.000
    15 C      -8.030715    -4.636766     0.611387 C          1 UNL1 0.000
    16 C      -8.727000    -3.492538     0.986803 C          1 UNL1 0.000
    17 C      -8.054192    -2.274899     1.114063 C          1 UNL1 0.000
    18 C      -2.514646     0.463715     0.554596 C          1 UNL1 0.000
    19 C      -1.810960     0.279049     1.752202 C          1 UNL1 0.000
    20 C      -0.413738     0.305048     1.756920 C          1 UNL1 0.000
    21 C       0.304188     0.493498     0.565715 C          1 UNL1 0.000
    22 C      -0.406331     0.664357    -0.631673 C          1 UNL1 0.000
    23 C      -1.802760     0.659931    -0.637723 C          1 UNL1 0.000
    24 H      -6.326700     1.051188    -0.736530 H          1 UNL1 0.000
    25 H      -7.444958     3.226079    -0.829989 H          1 UNL1 0.000
    26 H      -6.369517     5.241314     0.139116 H          1 UNL1 0.000
    27 H      -4.149386     5.042795     1.231275 H          1 UNL1 0.000
    28 H      -3.056963     2.868310     1.429005 H          1 UNL1 0.000
    29 H      -2.908533    -1.991837    -0.054645 H          1 UNL1 0.000
    30 H      -4.044261    -4.126599    -0.114763 H          1 UNL1 0.000
    31 H      -6.533134    -0.086324     1.300108 H          1 UNL1 0.000
    32 H      -6.132157    -5.467653     0.060396 H          1 UNL1 0.000
    33 H      -8.552092    -5.585326     0.512220 H          1 UNL1 0.000
    34 H      -9.795975    -3.544333     1.176916 H          1 UNL1 0.000
    35 H      -8.618381    -1.391428     1.402958 H          1 UNL1 0.000
    36 H      -2.354291     0.138212     2.682929 H          1 UNL1 0.000
    37 H       0.117469     0.183366     2.698748 H          1 UNL1 0.000
    38 H       0.129403     0.801099    -1.568864 H          1 UNL1 0.000
    39 H      -2.340482     0.792252    -1.573179 H          1 UNL1 0.000
    40 C       1.769145     0.512585     0.570356 C          1 UNL1 0.000
    41 C       2.495222    -0.685748     0.531733 C          1 UNL1 0.000
    42 C       3.895172    -0.700476     0.529636 C          1 UNL1 0.000
    43 C       4.553234     0.532554     0.570516 C          1 UNL1 0.000
    44 C       3.871794     1.748180     0.610979 C          1 UNL1 0.000
    45 C       2.462827     1.736255     0.609178 C          1 UNL1 0.000
    46 N       5.899137     0.822652     0.579639 N          1 UNL1 0.000
    47 C       6.091047     2.178130     0.627019 C          1 UNL1 0.000
    48 C       4.852472     2.777700     0.647066 C          1 UNL1 0.000
    49 H       1.962724    -1.635110     0.497942 H          1 UNL1 0.000
    50 H       4.440800    -1.637545     0.496775 H          1 UNL1 0.000
    51 H       1.916039     2.675037     0.640355 H          1 UNL1 0.000
    52 H       6.634287     0.129794     0.555609 H          1 UNL1 0.000
    53 H       7.088030     2.597215     0.642188 H          1 UNL1 0.000
    54 H       4.667593     3.843176     0.684045 H          1 UNL1 0.000
@<TRIPOS>BOND
     1      1      2   1
     2      1      3   1
     3      3      4   2
     4      4      5   1
     5      5      6   2
     6      6      7   1
     7      7      8   2
     8      8      3   1
     9      2      9   2
    10      9     10   1
    11     10     11   2
    12     11     12   1
    13     12     13   2
    14     13      2   1
    15     11     14   1
    16     14     15   2
    17     15     16   1
    18     16     17   2
    19     17     12   1
    20     18     19   2
    21     19     20   1
    22     20     21   2
    23     21     22   1
    24     22     23   2
    25     23     18   1
    26      1     18   1
    27      4     24   1
    28      5     25   1
    29      6     26   1
    30      7     27   1
    31      8     28   1
    32      9     29   1
    33     10     30   1
    34     13     31   1
    35     14     32   1
    36     15     33   1
    37     16     34   1
    38     17     35   1
    39     19     36   1
    40     20     37   1
    41     22     38   1
    42     23     39   1
    43     40     41   2
    44     41     42   1
    45     42     43   2
    46     43     44   1
    47     44     45   2
    48     45     40   1
    49     43     46   1
    50     46     47   1
    51     47     48   2
    52     48     44   1
    53     41     49   1
    54     42     50   1
    55     45     51   1
    56     46     52   1
    57     47     53   1
    58     48     54   1
    59     21     40   1
