# Produced with molli package
@<TRIPOS>MOLECULE
F_1_P
54 58 0 0 0
SMALL
USER_CHARGES

@<TRIPOS>ATOM
     1 N      -3.854053     0.448363     0.440338 N          1 UNL1 0.000
     2 C      -4.562684    -0.815651     0.456258 C          1 UNL1 0.000
     3 C      -4.504252     1.737623     0.319446 C          1 UNL1 0.000
     4 C      -5.716855     1.909206    -0.370000 C          1 UNL1 0.000
     5 C      -6.336257     3.162087    -0.453862 C          1 UNL1 0.000
     6 C      -5.737433     4.280032     0.119211 C          1 UNL1 0.000
     7 C      -4.517256     4.147936     0.772051 C          1 UNL1 0.000
     8 C      -3.910538     2.892025     0.871751 C          1 UNL1 0.000
     9 C      -3.931425    -2.003218     0.040371 C          1 UNL1 0.000
    10 C      -4.615567    -3.222702    -0.006161 C          1 UNL1 0.000
    11 C      -5.966351    -3.296073     0.346762 C          1 UNL1 0.000
    12 C      -6.619524    -2.130558     0.800192 C          1 UNL1 0.000
    13 C      -5.899130    -0.921590     0.883240 C          1 UNL1 0.000
    14 C      -6.682966    -4.499665     0.248963 C          1 UNL1 0.000
    15 C      -8.037885    -4.549558     0.576749 C          1 UNL1 0.000
    16 C      -8.687228    -3.400880     1.018860 C          1 UNL1 0.000
    17 C      -7.981288    -2.201907     1.138608 C          1 UNL1 0.000
    18 C      -2.415037     0.431383     0.439487 C          1 UNL1 0.000
    19 C      -1.706071     0.117141     1.606145 C          1 UNL1 0.000
    20 C      -0.308383     0.135476     1.605915 C          1 UNL1 0.000
    21 C       0.407233     0.450700     0.439689 C          1 UNL1 0.000
    22 C      -0.309513     0.742854    -0.730381 C          1 UNL1 0.000
    23 C      -1.706275     0.742049    -0.730094 C          1 UNL1 0.000
    24 H      -6.193018     1.070507    -0.870731 H          1 UNL1 0.000
    25 H      -7.284383     3.262309    -0.975793 H          1 UNL1 0.000
    26 H      -6.215748     5.253320     0.049511 H          1 UNL1 0.000
    27 H      -4.033916     5.017773     1.209202 H          1 UNL1 0.000
    28 H      -2.964073     2.825643     1.403007 H          1 UNL1 0.000
    29 H      -2.893422    -1.998857    -0.282715 H          1 UNL1 0.000
    30 H      -4.083728    -4.108631    -0.345652 H          1 UNL1 0.000
    31 H      -6.405591    -0.046419     1.283427 H          1 UNL1 0.000
    32 H      -6.191103    -5.406196    -0.096854 H          1 UNL1 0.000
    33 H      -8.585424    -5.483565     0.482072 H          1 UNL1 0.000
    34 H      -9.744814    -3.435556     1.266823 H          1 UNL1 0.000
    35 H      -8.508865    -1.314202     1.480877 H          1 UNL1 0.000
    36 H      -2.244573    -0.112188     2.522100 H          1 UNL1 0.000
    37 H       0.224223    -0.078460     2.530542 H          1 UNL1 0.000
    38 H       0.219900     0.975756    -1.651971 H          1 UNL1 0.000
    39 H      -2.247006     0.972044    -1.644818 H          1 UNL1 0.000
    40 C       1.872429     0.502264     0.452121 C          1 UNL1 0.000
    41 C       2.637942    -0.670437     0.555625 C          1 UNL1 0.000
    42 C       4.034256    -0.611532     0.586248 C          1 UNL1 0.000
    43 C       4.672719     0.623441     0.505141 C          1 UNL1 0.000
    44 C       3.933558     1.798943     0.422437 C          1 UNL1 0.000
    45 C       2.539471     1.736634     0.383431 C          1 UNL1 0.000
    46 O       6.034658     0.717438     0.587447 O          1 UNL1 0.000
    47 C       6.635994     0.342375    -0.651231 C          1 UNL1 0.000
    48 H       2.145388    -1.638652     0.618183 H          1 UNL1 0.000
    49 H       4.613627    -1.524032     0.688571 H          1 UNL1 0.000
    50 H       4.438520     2.759759     0.391876 H          1 UNL1 0.000
    51 H       1.969227     2.661175     0.319101 H          1 UNL1 0.000
    52 H       7.702417     0.579569    -0.589448 H          1 UNL1 0.000
    53 H       6.212560     0.907850    -1.489265 H          1 UNL1 0.000
    54 H       6.537630    -0.733904    -0.826564 H          1 UNL1 0.000
@<TRIPOS>BOND
     1      1      2   1
     2      1      3   1
     3      3      4   2
     4      4      5   1
     5      5      6   2
     6      6      7   1
     7      7      8   2
     8      8      3   1
     9      2      9   2
    10      9     10   1
    11     10     11   2
    12     11     12   1
    13     12     13   2
    14     13      2   1
    15     11     14   1
    16     14     15   2
    17     15     16   1
    18     16     17   2
    19     17     12   1
    20     18     19   2
    21     19     20   1
    22     20     21   2
    23     21     22   1
    24     22     23   2
    25     23     18   1
    26      1     18   1
    27      4     24   1
    28      5     25   1
    29      6     26   1
    30      7     27   1
    31      8     28   1
    32      9     29   1
    33     10     30   1
    34     13     31   1
    35     14     32   1
    36     15     33   1
    37     16     34   1
    38     17     35   1
    39     19     36   1
    40     20     37   1
    41     22     38   1
    42     23     39   1
    43     40     41   2
    44     41     42   1
    45     42     43   2
    46     43     44   1
    47     44     45   2
    48     45     40   1
    49     46     47   1
    50     43     46   1
    51     41     48   1
    52     42     49   1
    53     44     50   1
    54     45     51   1
    55     47     52   1
    56     47     53   1
    57     47     54   1
    58     21     40   1
