# Produced with molli package
@<TRIPOS>MOLECULE
F_1_K
52 56 0 0 0
SMALL
USER_CHARGES

@<TRIPOS>ATOM
     1 N      -3.965797     0.571320     0.438324 N          1 UNL1 0.000
     2 C      -4.660449    -0.702768     0.428217 C          1 UNL1 0.000
     3 C      -4.619120     1.860447     0.533155 C          1 UNL1 0.000
     4 C      -5.812181     2.053314     1.249200 C          1 UNL1 0.000
     5 C      -6.435120     3.306604     1.302153 C          1 UNL1 0.000
     6 C      -5.857027     4.405111     0.672515 C          1 UNL1 0.000
     7 C      -4.652396     4.254198    -0.003918 C          1 UNL1 0.000
     8 C      -4.043172     2.997586    -0.072253 C          1 UNL1 0.000
     9 C      -3.983872    -1.896926     0.747845 C          1 UNL1 0.000
    10 C      -4.637518    -3.133775     0.777362 C          1 UNL1 0.000
    11 C      -6.005914    -3.221628     0.510130 C          1 UNL1 0.000
    12 C      -6.711208    -2.050160     0.164793 C          1 UNL1 0.000
    13 C      -6.020958    -0.821478     0.090115 C          1 UNL1 0.000
    14 C      -6.687079    -4.447229     0.586910 C          1 UNL1 0.000
    15 C      -8.059640    -4.513515     0.348614 C          1 UNL1 0.000
    16 C      -8.762534    -3.358508     0.019909 C          1 UNL1 0.000
    17 C      -8.092096    -2.137280    -0.080840 C          1 UNL1 0.000
    18 C      -2.526707     0.567837     0.444780 C          1 UNL1 0.000
    19 C      -1.828310     0.809367     1.636336 C          1 UNL1 0.000
    20 C      -0.432094     0.790900     1.650803 C          1 UNL1 0.000
    21 C       0.292519     0.548916     0.474004 C          1 UNL1 0.000
    22 C      -0.412592     0.315577    -0.717250 C          1 UNL1 0.000
    23 C      -1.809657     0.315959    -0.732254 C          1 UNL1 0.000
    24 H      -6.269256     1.232425     1.795119 H          1 UNL1 0.000
    25 H      -7.370012     3.423342     1.844231 H          1 UNL1 0.000
    26 H      -6.338560     5.378339     0.717200 H          1 UNL1 0.000
    27 H      -4.183587     5.109178    -0.484130 H          1 UNL1 0.000
    28 H      -3.109410     2.916825    -0.623023 H          1 UNL1 0.000
    29 H      -2.926211    -1.890705     0.998651 H          1 UNL1 0.000
    30 H      -4.065403    -4.022605     1.033250 H          1 UNL1 0.000
    31 H      -6.573876     0.053965    -0.239973 H          1 UNL1 0.000
    32 H      -6.152672    -5.358872     0.844802 H          1 UNL1 0.000
    33 H      -8.578653    -5.465367     0.424888 H          1 UNL1 0.000
    34 H      -9.834081    -3.405959    -0.155585 H          1 UNL1 0.000
    35 H      -8.661507    -1.245933    -0.334882 H          1 UNL1 0.000
    36 H      -2.377193     0.990668     2.557245 H          1 UNL1 0.000
    37 H       0.089224     0.959994     2.590843 H          1 UNL1 0.000
    38 H       0.126080     0.139116    -1.646070 H          1 UNL1 0.000
    39 H      -2.343097     0.138286    -1.662639 H          1 UNL1 0.000
    40 C       1.757448     0.542899     0.488661 C          1 UNL1 0.000
    41 C       2.468658    -0.666761     0.416621 C          1 UNL1 0.000
    42 C       3.866120    -0.677867     0.427396 C          1 UNL1 0.000
    43 C       4.559068     0.534931     0.512430 C          1 UNL1 0.000
    44 C       3.872103     1.750951     0.587549 C          1 UNL1 0.000
    45 C       2.474897     1.748192     0.575082 C          1 UNL1 0.000
    46 N       6.022317     0.529423     0.520880 N          1 UNL1 0.000
    47 O       6.595699    -0.447887     0.023701 O          1 UNL1 0.000
    48 O       6.595549     1.507095     1.026327 O          1 UNL1 0.000
    49 H       1.929364    -1.611300     0.357961 H          1 UNL1 0.000
    50 H       4.393405    -1.627850     0.374677 H          1 UNL1 0.000
    51 H       4.403932     2.698133     0.649299 H          1 UNL1 0.000
    52 H       1.940101     2.695786     0.625976 H          1 UNL1 0.000
@<TRIPOS>BOND
     1      1      2   1
     2      1      3   1
     3      3      4   2
     4      4      5   1
     5      5      6   2
     6      6      7   1
     7      7      8   2
     8      8      3   1
     9      2      9   2
    10      9     10   1
    11     10     11   2
    12     11     12   1
    13     12     13   2
    14     13      2   1
    15     11     14   1
    16     14     15   2
    17     15     16   1
    18     16     17   2
    19     17     12   1
    20     18     19   2
    21     19     20   1
    22     20     21   2
    23     21     22   1
    24     22     23   2
    25     23     18   1
    26      1     18   1
    27      4     24   1
    28      5     25   1
    29      6     26   1
    30      7     27   1
    31      8     28   1
    32      9     29   1
    33     10     30   1
    34     13     31   1
    35     14     32   1
    36     15     33   1
    37     16     34   1
    38     17     35   1
    39     19     36   1
    40     20     37   1
    41     22     38   1
    42     23     39   1
    43     40     41   2
    44     41     42   1
    45     42     43   2
    46     43     44   1
    47     44     45   2
    48     45     40   1
    49     46     47   2
    50     46     48   1
    51     43     46   1
    52     41     49   1
    53     42     50   1
    54     44     51   1
    55     45     52   1
    56     21     40   1
