# Produced with molli package
@<TRIPOS>MOLECULE
F_1_S
55 59 0 0 0
SMALL
USER_CHARGES

@<TRIPOS>ATOM
     1 N      -3.858355     0.463688     0.437941 N          1 UNL1 0.000
     2 C      -4.546800    -0.814436     0.394942 C          1 UNL1 0.000
     3 C      -4.513979     1.751479     0.583040 C          1 UNL1 0.000
     4 C      -5.772209     1.904942     1.189849 C          1 UNL1 0.000
     5 C      -6.401448     3.154586     1.268946 C          1 UNL1 0.000
     6 C      -5.761509     4.294087     0.793250 C          1 UNL1 0.000
     7 C      -4.489535     4.186305     0.245947 C          1 UNL1 0.000
     8 C      -3.878628     2.932296     0.139027 C          1 UNL1 0.000
     9 C      -3.877442    -2.007180     0.734034 C          1 UNL1 0.000
    10 C      -4.535627    -3.242290     0.767092 C          1 UNL1 0.000
    11 C      -5.901911    -3.328516     0.486598 C          1 UNL1 0.000
    12 C      -6.594582    -2.161151     0.105400 C          1 UNL1 0.000
    13 C      -5.895711    -0.938589     0.015788 C          1 UNL1 0.000
    14 C      -6.594748    -4.546059     0.588890 C          1 UNL1 0.000
    15 C      -7.966992    -4.605875     0.345671 C          1 UNL1 0.000
    16 C      -8.657062    -3.454017    -0.019155 C          1 UNL1 0.000
    17 C      -7.974012    -2.242846    -0.150815 C          1 UNL1 0.000
    18 C      -2.417918     0.458955     0.428836 C          1 UNL1 0.000
    19 C      -1.704544     0.646101     1.621535 C          1 UNL1 0.000
    20 C      -0.307911     0.653951     1.613517 C          1 UNL1 0.000
    21 C       0.403086     0.492778     0.414560 C          1 UNL1 0.000
    22 C      -0.316789     0.307855    -0.776340 C          1 UNL1 0.000
    23 C      -1.714670     0.281646    -0.770276 C          1 UNL1 0.000
    24 H      -6.286463     1.056395     1.631539 H          1 UNL1 0.000
    25 H      -7.390805     3.234075     1.712220 H          1 UNL1 0.000
    26 H      -6.246765     5.264000     0.860236 H          1 UNL1 0.000
    27 H      -3.968352     5.072803    -0.105796 H          1 UNL1 0.000
    28 H      -2.890079     2.895066    -0.311654 H          1 UNL1 0.000
    29 H      -2.824877    -2.000186     1.005464 H          1 UNL1 0.000
    30 H      -3.971079    -4.129403     1.045039 H          1 UNL1 0.000
    31 H      -6.435547    -0.069251    -0.349994 H          1 UNL1 0.000
    32 H      -6.070806    -5.455046     0.875997 H          1 UNL1 0.000
    33 H      -8.496120    -5.549724     0.447952 H          1 UNL1 0.000
    34 H      -9.728594    -3.495492    -0.196409 H          1 UNL1 0.000
    35 H      -8.533852    -1.353059    -0.430314 H          1 UNL1 0.000
    36 H      -2.241574     0.770330     2.558645 H          1 UNL1 0.000
    37 H       0.226338     0.781909     2.552808 H          1 UNL1 0.000
    38 H       0.210902     0.190802    -1.720782 H          1 UNL1 0.000
    39 H      -2.259338     0.147132    -1.701392 H          1 UNL1 0.000
    40 C       1.868071     0.515354     0.411511 C          1 UNL1 0.000
    41 C       2.601828    -0.673960     0.327105 C          1 UNL1 0.000
    42 C       4.000191    -0.651829     0.338666 C          1 UNL1 0.000
    43 C       4.697388     0.561183     0.431492 C          1 UNL1 0.000
    44 C       3.970611     1.752235     0.523764 C          1 UNL1 0.000
    45 C       2.569101     1.726182     0.509756 C          1 UNL1 0.000
    46 C       6.192565     0.507055     0.437717 C          1 UNL1 0.000
    47 C       7.006872     1.775447     0.396742 C          1 UNL1 0.000
    48 O       6.755960    -0.584392     0.494748 O          1 UNL1 0.000
    49 H       2.087119    -1.630880     0.261781 H          1 UNL1 0.000
    50 H       4.543025    -1.593977     0.278287 H          1 UNL1 0.000
    51 H       4.455428     2.718277     0.616997 H          1 UNL1 0.000
    52 H       2.020048     2.664415     0.577076 H          1 UNL1 0.000
    53 H       7.374156     1.999615     1.401500 H          1 UNL1 0.000
    54 H       6.455928     2.630254     0.005722 H          1 UNL1 0.000
    55 H       7.857264     1.618394    -0.274671 H          1 UNL1 0.000
@<TRIPOS>BOND
     1      1      2   1
     2      1      3   1
     3      3      4   2
     4      4      5   1
     5      5      6   2
     6      6      7   1
     7      7      8   2
     8      8      3   1
     9      2      9   2
    10      9     10   1
    11     10     11   2
    12     11     12   1
    13     12     13   2
    14     13      2   1
    15     11     14   1
    16     14     15   2
    17     15     16   1
    18     16     17   2
    19     17     12   1
    20     18     19   2
    21     19     20   1
    22     20     21   2
    23     21     22   1
    24     22     23   2
    25     23     18   1
    26      1     18   1
    27      4     24   1
    28      5     25   1
    29      6     26   1
    30      7     27   1
    31      8     28   1
    32      9     29   1
    33     10     30   1
    34     13     31   1
    35     14     32   1
    36     15     33   1
    37     16     34   1
    38     17     35   1
    39     19     36   1
    40     20     37   1
    41     22     38   1
    42     23     39   1
    43     40     41   2
    44     41     42   1
    45     42     43   2
    46     43     44   1
    47     44     45   2
    48     45     40   1
    49     43     46   1
    50     46     47   1
    51     46     48   2
    52     41     49   1
    53     42     50   1
    54     44     51   1
    55     45     52   1
    56     47     53   1
    57     47     54   1
    58     47     55   1
    59     21     40   1
