# Produced with molli package
@<TRIPOS>MOLECULE
F_1_T
53 57 0 0 0
SMALL
USER_CHARGES

@<TRIPOS>ATOM
     1 N      -3.903728     0.508598     0.499162 N          1 UNL1 0.000
     2 C      -4.616485    -0.754594     0.518410 C          1 UNL1 0.000
     3 C      -4.538996     1.802012     0.345259 C          1 UNL1 0.000
     4 C      -5.733497     1.978180    -0.373554 C          1 UNL1 0.000
     5 C      -6.338492     3.236286    -0.485501 C          1 UNL1 0.000
     6 C      -5.740455     4.355664     0.085416 C          1 UNL1 0.000
     7 C      -4.534613     4.219899     0.763014 C          1 UNL1 0.000
     8 C      -3.943996     2.958933     0.891830 C          1 UNL1 0.000
     9 C      -3.965267    -1.957717     0.185076 C          1 UNL1 0.000
    10 C      -4.645279    -3.180292     0.145840 C          1 UNL1 0.000
    11 C      -6.014719    -3.241299     0.421393 C          1 UNL1 0.000
    12 C      -6.690958    -2.061586     0.790281 C          1 UNL1 0.000
    13 C      -5.975183    -0.848210     0.872924 C          1 UNL1 0.000
    14 C      -6.723957    -4.450365     0.327729 C          1 UNL1 0.000
    15 C      -8.096452    -4.489091     0.575058 C          1 UNL1 0.000
    16 C      -8.770010    -3.325318     0.931260 C          1 UNL1 0.000
    17 C      -8.071696    -2.121065     1.048048 C          1 UNL1 0.000
    18 C      -2.464589     0.484224     0.517549 C          1 UNL1 0.000
    19 C      -1.771162     0.245993     1.711643 C          1 UNL1 0.000
    20 C      -0.373566     0.241697     1.723481 C          1 UNL1 0.000
    21 C       0.354341     0.455076     0.542639 C          1 UNL1 0.000
    22 C      -0.346329     0.677341    -0.652018 C          1 UNL1 0.000
    23 C      -1.742225     0.701890    -0.664635 C          1 UNL1 0.000
    24 H      -6.206372     1.139652    -0.877376 H          1 UNL1 0.000
    25 H      -7.274438     3.339468    -1.028432 H          1 UNL1 0.000
    26 H      -6.207086     5.332748    -0.006390 H          1 UNL1 0.000
    27 H      -4.049578     5.090504     1.196701 H          1 UNL1 0.000
    28 H      -3.008010     2.891862     1.441004 H          1 UNL1 0.000
    29 H      -2.909618    -1.968348    -0.075008 H          1 UNL1 0.000
    30 H      -4.094664    -4.077186    -0.126345 H          1 UNL1 0.000
    31 H      -6.504097     0.036767     1.215999 H          1 UNL1 0.000
    32 H      -6.212801    -5.368364     0.048362 H          1 UNL1 0.000
    33 H      -8.637744    -5.427264     0.484085 H          1 UNL1 0.000
    34 H      -9.841051    -3.351466     1.114918 H          1 UNL1 0.000
    35 H      -8.618133    -1.222008     1.322383 H          1 UNL1 0.000
    36 H      -2.322023     0.086611     2.634958 H          1 UNL1 0.000
    37 H       0.149897     0.078651     2.663373 H          1 UNL1 0.000
    38 H       0.196660     0.832780    -1.582046 H          1 UNL1 0.000
    39 H      -2.271794     0.873776    -1.598331 H          1 UNL1 0.000
    40 C       1.818425     0.456111     0.555138 C          1 UNL1 0.000
    41 C       2.538608    -0.744599     0.496778 C          1 UNL1 0.000
    42 C       3.936725    -0.740648     0.498839 C          1 UNL1 0.000
    43 C       4.641795     0.465407     0.569514 C          1 UNL1 0.000
    44 C       3.927781     1.667548     0.620579 C          1 UNL1 0.000
    45 C       2.530430     1.661932     0.615069 C          1 UNL1 0.000
    46 C       6.141317     0.483876     0.550559 C          1 UNL1 0.000
    47 H       2.009856    -1.693912     0.441384 H          1 UNL1 0.000
    48 H       4.468538    -1.687716     0.444216 H          1 UNL1 0.000
    49 H       4.455061     2.617823     0.664445 H          1 UNL1 0.000
    50 H       1.994816     2.608124     0.657855 H          1 UNL1 0.000
    51 H       6.524321     1.139302     1.339678 H          1 UNL1 0.000
    52 H       6.499503     0.842362    -0.419554 H          1 UNL1 0.000
    53 H       6.555444    -0.514937     0.723090 H          1 UNL1 0.000
@<TRIPOS>BOND
     1      1      2   1
     2      1      3   1
     3      3      4   2
     4      4      5   1
     5      5      6   2
     6      6      7   1
     7      7      8   2
     8      8      3   1
     9      2      9   2
    10      9     10   1
    11     10     11   2
    12     11     12   1
    13     12     13   2
    14     13      2   1
    15     11     14   1
    16     14     15   2
    17     15     16   1
    18     16     17   2
    19     17     12   1
    20     18     19   2
    21     19     20   1
    22     20     21   2
    23     21     22   1
    24     22     23   2
    25     23     18   1
    26      1     18   1
    27      4     24   1
    28      5     25   1
    29      6     26   1
    30      7     27   1
    31      8     28   1
    32      9     29   1
    33     10     30   1
    34     13     31   1
    35     14     32   1
    36     15     33   1
    37     16     34   1
    38     17     35   1
    39     19     36   1
    40     20     37   1
    41     22     38   1
    42     23     39   1
    43     40     41   2
    44     41     42   1
    45     42     43   2
    46     43     44   1
    47     44     45   2
    48     45     40   1
    49     43     46   1
    50     41     47   1
    51     42     48   1
    52     44     49   1
    53     45     50   1
    54     46     51   1
    55     46     52   1
    56     46     53   1
    57     21     40   1
