# Produced with molli package
@<TRIPOS>MOLECULE
F_2_O
49 53 0 0 0
SMALL
USER_CHARGES

@<TRIPOS>ATOM
     1 N      -1.860632     0.432785     1.844218 N          1 UNL1 0.000
     2 C      -2.576351    -0.830833     1.880625 C          1 UNL1 0.000
     3 C      -2.491729     1.733316     1.739578 C          1 UNL1 0.000
     4 C      -3.704169     1.931539     1.057990 C          1 UNL1 0.000
     5 C      -4.307120     3.194156     0.990912 C          1 UNL1 0.000
     6 C      -3.687850     4.299027     1.567143 C          1 UNL1 0.000
     7 C      -2.461954     4.144119     2.202792 C          1 UNL1 0.000
     8 C      -1.873919     2.877737     2.287439 C          1 UNL1 0.000
     9 C      -1.926377    -2.038541     1.561009 C          1 UNL1 0.000
    10 C      -2.601898    -3.262846     1.529870 C          1 UNL1 0.000
    11 C      -3.968826    -3.324321     1.808194 C          1 UNL1 0.000
    12 C      -4.646051    -2.143876     2.172362 C          1 UNL1 0.000
    13 C      -3.932726    -0.926316     2.243330 C          1 UNL1 0.000
    14 C      -4.672655    -4.536492     1.719619 C          1 UNL1 0.000
    15 C      -6.043818    -4.579484     1.970504 C          1 UNL1 0.000
    16 C      -6.719956    -3.416696     2.325075 C          1 UNL1 0.000
    17 C      -6.025938    -2.208636     2.434987 C          1 UNL1 0.000
    18 C      -0.413494     0.399668     1.812607 C          1 UNL1 0.000
    19 C       0.281244     0.270547     3.032092 C          1 UNL1 0.000
    20 C       1.674448     0.264383     3.058454 C          1 UNL1 0.000
    21 C       2.390124     0.371268     1.869336 C          1 UNL1 0.000
    22 C       1.714119     0.479091     0.651198 C          1 UNL1 0.000
    23 C       0.307767     0.495126     0.596229 C          1 UNL1 0.000
    24 H      -4.189895     1.105575     0.545290 H          1 UNL1 0.000
    25 H      -5.258460     3.311570     0.478671 H          1 UNL1 0.000
    26 H      -4.153791     5.279194     1.512142 H          1 UNL1 0.000
    27 H      -1.960186     5.003345     2.640219 H          1 UNL1 0.000
    28 H      -0.922377     2.798725     2.806185 H          1 UNL1 0.000
    29 H      -0.874623    -2.051012     1.284945 H          1 UNL1 0.000
    30 H      -2.047856    -4.156133     1.254475 H          1 UNL1 0.000
    31 H      -4.464005    -0.042035     2.582222 H          1 UNL1 0.000
    32 H      -4.157352    -5.452342     1.441140 H          1 UNL1 0.000
    33 H      -6.581214    -5.520122     1.883481 H          1 UNL1 0.000
    34 H      -7.790221    -3.446445     2.512047 H          1 UNL1 0.000
    35 H      -6.574912    -1.310617     2.706692 H          1 UNL1 0.000
    36 H      -0.278179     0.186272     3.960818 H          1 UNL1 0.000
    37 H       2.199178     0.171368     4.005522 H          1 UNL1 0.000
    38 H       3.476968     0.354788     1.885218 H          1 UNL1 0.000
    39 H       2.289826     0.527324    -0.271445 H          1 UNL1 0.000
    40 C      -0.358297     0.546593    -0.710071 C          1 UNL1 0.000
    41 N      -0.786968    -0.645822    -1.195959 N          1 UNL1 0.000
    42 C      -1.420294    -0.642545    -2.387416 C          1 UNL1 0.000
    43 C      -1.614322     0.494343    -3.151676 C          1 UNL1 0.000
    44 C      -1.138065     1.703738    -2.659883 C          1 UNL1 0.000
    45 C      -0.503721     1.735253    -1.419987 C          1 UNL1 0.000
    46 H      -1.779937    -1.611749    -2.720448 H          1 UNL1 0.000
    47 H      -2.125391     0.437669    -4.105840 H          1 UNL1 0.000
    48 H      -1.266396     2.617613    -3.232040 H          1 UNL1 0.000
    49 H      -0.139041     2.671448    -1.011206 H          1 UNL1 0.000
@<TRIPOS>BOND
     1      1      2   1
     2      1      3   1
     3      3      4   2
     4      4      5   1
     5      5      6   2
     6      6      7   1
     7      7      8   2
     8      8      3   1
     9      2      9   2
    10      9     10   1
    11     10     11   2
    12     11     12   1
    13     12     13   2
    14     13      2   1
    15     11     14   1
    16     14     15   2
    17     15     16   1
    18     16     17   2
    19     17     12   1
    20     18     19   2
    21     19     20   1
    22     20     21   2
    23     21     22   1
    24     22     23   2
    25     23     18   1
    26      1     18   1
    27      4     24   1
    28      5     25   1
    29      6     26   1
    30      7     27   1
    31      8     28   1
    32      9     29   1
    33     10     30   1
    34     13     31   1
    35     14     32   1
    36     15     33   1
    37     16     34   1
    38     17     35   1
    39     19     36   1
    40     20     37   1
    41     21     38   1
    42     22     39   1
    43     40     41   2
    44     41     42   1
    45     42     43   2
    46     43     44   1
    47     44     45   2
    48     45     40   1
    49     42     46   1
    50     43     47   1
    51     44     48   1
    52     45     49   1
    53     23     40   1
