# Produced with molli package
@<TRIPOS>MOLECULE
F_2_M
51 55 0 0 0
SMALL
USER_CHARGES

@<TRIPOS>ATOM
     1 N      -1.853954     0.562288     1.779972 N          1 UNL1 0.000
     2 C      -2.548054    -0.714927     1.841334 C          1 UNL1 0.000
     3 C      -2.503551     1.860418     1.710861 C          1 UNL1 0.000
     4 C      -3.756608     2.054695     1.104447 C          1 UNL1 0.000
     5 C      -4.385914     3.306671     1.099231 C          1 UNL1 0.000
     6 C      -3.746266     4.414772     1.643240 C          1 UNL1 0.000
     7 C      -2.473017     4.273607     2.179614 C          1 UNL1 0.000
     8 C      -1.863923     3.014094     2.214758 C          1 UNL1 0.000
     9 C      -1.862511    -1.924707     1.608632 C          1 UNL1 0.000
    10 C      -2.521132    -3.159605     1.570308 C          1 UNL1 0.000
    11 C      -3.905039    -3.231630     1.742812 C          1 UNL1 0.000
    12 C      -4.615438    -2.050638     2.035477 C          1 UNL1 0.000
    13 C      -3.917456    -0.828926     2.139406 C          1 UNL1 0.000
    14 C      -4.597386    -4.447381     1.620404 C          1 UNL1 0.000
    15 C      -5.985229    -4.490978     1.753879 C          1 UNL1 0.000
    16 C      -6.692019    -3.325231     2.032445 C          1 UNL1 0.000
    17 C      -6.010872    -2.116075     2.186896 C          1 UNL1 0.000
    18 C      -0.405809     0.550953     1.732539 C          1 UNL1 0.000
    19 C       0.303839     0.483505     2.948830 C          1 UNL1 0.000
    20 C       1.697038     0.485881     2.960110 C          1 UNL1 0.000
    21 C       2.398669     0.539709     1.759455 C          1 UNL1 0.000
    22 C       1.709206     0.583645     0.544970 C          1 UNL1 0.000
    23 C       0.302441     0.588283     0.503527 C          1 UNL1 0.000
    24 H      -4.263736     1.236575     0.600952 H          1 UNL1 0.000
    25 H      -5.374675     3.412674     0.660087 H          1 UNL1 0.000
    26 H      -4.231762     5.386942     1.636233 H          1 UNL1 0.000
    27 H      -1.949801     5.138165     2.580075 H          1 UNL1 0.000
    28 H      -0.873413     2.954073     2.656954 H          1 UNL1 0.000
    29 H      -0.790935    -1.936510     1.430667 H          1 UNL1 0.000
    30 H      -1.940714    -4.057617     1.372407 H          1 UNL1 0.000
    31 H      -4.481705     0.044900     2.450305 H          1 UNL1 0.000
    32 H      -4.060204    -5.367133     1.400403 H          1 UNL1 0.000
    33 H      -6.513338    -5.433081     1.632713 H          1 UNL1 0.000
    34 H      -7.774749    -3.353850     2.122638 H          1 UNL1 0.000
    35 H      -6.583144    -1.214869     2.395900 H          1 UNL1 0.000
    36 H      -0.244207     0.442392     3.887437 H          1 UNL1 0.000
    37 H       2.232895     0.446848     3.904889 H          1 UNL1 0.000
    38 H       3.485970     0.540104     1.764755 H          1 UNL1 0.000
    39 H       2.278300     0.609065    -0.382951 H          1 UNL1 0.000
    40 C      -0.369896     0.569447    -0.805512 C          1 UNL1 0.000
    41 C      -0.918672     1.734279    -1.360102 C          1 UNL1 0.000
    42 C      -1.562941     1.702676    -2.601466 C          1 UNL1 0.000
    43 C      -1.658993     0.503298    -3.312376 C          1 UNL1 0.000
    44 C      -1.103804    -0.662212    -2.779520 C          1 UNL1 0.000
    45 C      -0.462400    -0.626149    -1.537954 C          1 UNL1 0.000
    46 C      -2.322815     0.467914    -4.583516 C          1 UNL1 0.000
    47 N      -2.855743     0.437461    -5.612568 N          1 UNL1 0.000
    48 H      -0.857715     2.675903    -0.817432 H          1 UNL1 0.000
    49 H      -1.990824     2.619700    -3.001468 H          1 UNL1 0.000
    50 H      -1.169349    -1.605044    -3.319056 H          1 UNL1 0.000
    51 H      -0.041512    -1.545085    -1.133985 H          1 UNL1 0.000
@<TRIPOS>BOND
     1      1      2   1
     2      1      3   1
     3      3      4   2
     4      4      5   1
     5      5      6   2
     6      6      7   1
     7      7      8   2
     8      8      3   1
     9      2      9   2
    10      9     10   1
    11     10     11   2
    12     11     12   1
    13     12     13   2
    14     13      2   1
    15     11     14   1
    16     14     15   2
    17     15     16   1
    18     16     17   2
    19     17     12   1
    20     18     19   2
    21     19     20   1
    22     20     21   2
    23     21     22   1
    24     22     23   2
    25     23     18   1
    26      1     18   1
    27      4     24   1
    28      5     25   1
    29      6     26   1
    30      7     27   1
    31      8     28   1
    32      9     29   1
    33     10     30   1
    34     13     31   1
    35     14     32   1
    36     15     33   1
    37     16     34   1
    38     17     35   1
    39     19     36   1
    40     20     37   1
    41     21     38   1
    42     22     39   1
    43     40     41   2
    44     41     42   1
    45     42     43   2
    46     43     44   1
    47     44     45   2
    48     45     40   1
    49     46     47   3
    50     43     46   1
    51     41     48   1
    52     42     49   1
    53     44     50   1
    54     45     51   1
    55     23     40   1
