# Produced with molli package
@<TRIPOS>MOLECULE
F_2_Q
48 52 0 0 0
SMALL
USER_CHARGES

@<TRIPOS>ATOM
     1 N      -1.852030     0.474798     1.743251 N          1 UNL1 0.000
     2 C      -2.572167    -0.783597     1.833825 C          1 UNL1 0.000
     3 C      -2.478643     1.782190     1.659866 C          1 UNL1 0.000
     4 C      -3.703042     1.995538     1.004230 C          1 UNL1 0.000
     5 C      -4.310421     3.258308     0.979476 C          1 UNL1 0.000
     6 C      -3.681224     4.351592     1.566526 C          1 UNL1 0.000
     7 C      -2.439192     4.185810     2.166006 C          1 UNL1 0.000
     8 C      -1.848085     2.918604     2.210737 C          1 UNL1 0.000
     9 C      -1.915267    -2.010179     1.611168 C          1 UNL1 0.000
    10 C      -2.596628    -3.232695     1.624911 C          1 UNL1 0.000
    11 C      -3.973668    -3.275845     1.855905 C          1 UNL1 0.000
    12 C      -4.656339    -2.074821     2.130687 C          1 UNL1 0.000
    13 C      -3.938901    -0.859355     2.158758 C          1 UNL1 0.000
    14 C      -4.683340    -4.487270     1.815022 C          1 UNL1 0.000
    15 C      -6.062387    -4.509441     2.023603 C          1 UNL1 0.000
    16 C      -6.742558    -3.325137     2.288329 C          1 UNL1 0.000
    17 C      -6.044014    -2.117174     2.351309 C          1 UNL1 0.000
    18 C      -0.405295     0.442684     1.711529 C          1 UNL1 0.000
    19 C       0.291538     0.335175     2.932415 C          1 UNL1 0.000
    20 C       1.684558     0.337614     2.958296 C          1 UNL1 0.000
    21 C       2.398701     0.437089     1.767928 C          1 UNL1 0.000
    22 C       1.721338     0.520952     0.548792 C          1 UNL1 0.000
    23 C       0.314635     0.517017     0.493771 C          1 UNL1 0.000
    24 H      -4.197021     1.183138     0.478870 H          1 UNL1 0.000
    25 H      -5.271874     3.386346     0.489554 H          1 UNL1 0.000
    26 H      -4.147669     5.332547     1.541936 H          1 UNL1 0.000
    27 H      -1.923031     5.037362     2.601438 H          1 UNL1 0.000
    28 H      -0.879568     2.837075     2.695629 H          1 UNL1 0.000
    29 H      -0.849112    -2.046959     1.407357 H          1 UNL1 0.000
    30 H      -2.039467    -4.146169     1.432140 H          1 UNL1 0.000
    31 H      -4.480564     0.038423     2.440957 H          1 UNL1 0.000
    32 H      -4.166707    -5.421266     1.607393 H          1 UNL1 0.000
    33 H      -6.603624    -5.450624     1.974004 H          1 UNL1 0.000
    34 H      -7.818546    -3.338536     2.441370 H          1 UNL1 0.000
    35 H      -6.595770    -1.201969     2.552861 H          1 UNL1 0.000
    36 H      -0.266345     0.270904     3.864025 H          1 UNL1 0.000
    37 H       2.210310     0.271509     3.907253 H          1 UNL1 0.000
    38 H       3.485831     0.446705     1.785087 H          1 UNL1 0.000
    39 H       2.298141     0.589253    -0.372442 H          1 UNL1 0.000
    40 C      -0.347769     0.515935    -0.812209 C          1 UNL1 0.000
    41 N      -0.701397     1.718375    -1.329836 N          1 UNL1 0.000
    42 C      -1.309712     1.680793    -2.538183 C          1 UNL1 0.000
    43 C      -1.526551     0.501031    -3.231398 C          1 UNL1 0.000
    44 N      -1.149972    -0.701777    -2.747813 N          1 UNL1 0.000
    45 C      -0.565314    -0.664244    -1.524477 C          1 UNL1 0.000
    46 H      -1.622307     2.637436    -2.939962 H          1 UNL1 0.000
    47 H      -2.010567     0.492709    -4.201104 H          1 UNL1 0.000
    48 H      -0.262666    -1.627319    -1.127726 H          1 UNL1 0.000
@<TRIPOS>BOND
     1      1      2   1
     2      1      3   1
     3      3      4   2
     4      4      5   1
     5      5      6   2
     6      6      7   1
     7      7      8   2
     8      8      3   1
     9      2      9   2
    10      9     10   1
    11     10     11   2
    12     11     12   1
    13     12     13   2
    14     13      2   1
    15     11     14   1
    16     14     15   2
    17     15     16   1
    18     16     17   2
    19     17     12   1
    20     18     19   2
    21     19     20   1
    22     20     21   2
    23     21     22   1
    24     22     23   2
    25     23     18   1
    26      1     18   1
    27      4     24   1
    28      5     25   1
    29      6     26   1
    30      7     27   1
    31      8     28   1
    32      9     29   1
    33     10     30   1
    34     13     31   1
    35     14     32   1
    36     15     33   1
    37     16     34   1
    38     17     35   1
    39     19     36   1
    40     20     37   1
    41     21     38   1
    42     22     39   1
    43     40     41   2
    44     41     42   1
    45     42     43   2
    46     43     44   1
    47     44     45   2
    48     45     40   1
    49     42     46   1
    50     43     47   1
    51     45     48   1
    52     23     40   1
