# Produced with molli package
@<TRIPOS>MOLECULE
F_2_P
54 58 0 0 0
SMALL
USER_CHARGES

@<TRIPOS>ATOM
     1 N      -1.847338     0.478943     1.835663 N          1 UNL1 0.000
     2 C      -2.541564    -0.796946     1.868173 C          1 UNL1 0.000
     3 C      -2.499951     1.770792     1.757402 C          1 UNL1 0.000
     4 C      -3.674224     1.979423     1.014662 C          1 UNL1 0.000
     5 C      -4.290125     3.236177     0.960284 C          1 UNL1 0.000
     6 C      -3.721291     4.325161     1.613893 C          1 UNL1 0.000
     7 C      -2.532398     4.160731     2.314333 C          1 UNL1 0.000
     8 C      -1.931526     2.899709     2.384154 C          1 UNL1 0.000
     9 C      -1.847178    -2.004990     1.659526 C          1 UNL1 0.000
    10 C      -2.498966    -3.242662     1.617480 C          1 UNL1 0.000
    11 C      -3.884239    -3.319788     1.779372 C          1 UNL1 0.000
    12 C      -4.606831    -2.139944     2.040521 C          1 UNL1 0.000
    13 C      -3.920995    -0.907872     2.122833 C          1 UNL1 0.000
    14 C      -4.561357    -4.546746     1.681343 C          1 UNL1 0.000
    15 C      -5.947928    -4.604312     1.822398 C          1 UNL1 0.000
    16 C      -6.667684    -3.441362     2.075518 C          1 UNL1 0.000
    17 C      -6.002427    -2.218377     2.193015 C          1 UNL1 0.000
    18 C      -0.401134     0.480247     1.765178 C          1 UNL1 0.000
    19 C       0.331123     0.398155     2.966485 C          1 UNL1 0.000
    20 C       1.724266     0.410905     2.951551 C          1 UNL1 0.000
    21 C       2.402745     0.492610     1.738932 C          1 UNL1 0.000
    22 C       1.690343     0.550671     0.538279 C          1 UNL1 0.000
    23 C       0.283633     0.541015     0.523938 C          1 UNL1 0.000
    24 H      -4.111919     1.169348     0.436782 H          1 UNL1 0.000
    25 H      -5.209183     3.362758     0.394060 H          1 UNL1 0.000
    26 H      -4.195751     5.301643     1.566723 H          1 UNL1 0.000
    27 H      -2.067815     5.008921     2.810433 H          1 UNL1 0.000
    28 H      -1.008005     2.812469     2.949447 H          1 UNL1 0.000
    29 H      -0.771935    -2.012860     1.503602 H          1 UNL1 0.000
    30 H      -1.911257    -4.138317     1.435011 H          1 UNL1 0.000
    31 H      -4.496991    -0.026114     2.385288 H          1 UNL1 0.000
    32 H      -4.013047    -5.463863     1.481695 H          1 UNL1 0.000
    33 H      -6.463417    -5.556596     1.729215 H          1 UNL1 0.000
    34 H      -7.749152    -3.482296     2.176478 H          1 UNL1 0.000
    35 H      -6.584726    -1.320269     2.383256 H          1 UNL1 0.000
    36 H      -0.199190     0.333632     3.913774 H          1 UNL1 0.000
    37 H       2.278085     0.357010     3.885054 H          1 UNL1 0.000
    38 H       3.489764     0.500601     1.723605 H          1 UNL1 0.000
    39 H       2.239569     0.592655    -0.400749 H          1 UNL1 0.000
    40 C      -0.414629     0.518538    -0.771481 C          1 UNL1 0.000
    41 C      -0.914956     1.692743    -1.353869 C          1 UNL1 0.000
    42 C      -1.587594     1.652200    -2.579359 C          1 UNL1 0.000
    43 C      -1.747121     0.436029    -3.239823 C          1 UNL1 0.000
    44 C      -1.272260    -0.741808    -2.674237 C          1 UNL1 0.000
    45 C      -0.595933    -0.696955    -1.454297 C          1 UNL1 0.000
    46 O      -2.434363     0.349919    -4.419517 O          1 UNL1 0.000
    47 C      -1.672971     0.912032    -5.487355 C          1 UNL1 0.000
    48 H      -0.804450     2.644663    -0.838744 H          1 UNL1 0.000
    49 H      -1.999964     2.564741    -2.998057 H          1 UNL1 0.000
    50 H      -1.427830    -1.691156    -3.177680 H          1 UNL1 0.000
    51 H      -0.224568    -1.624193    -1.024339 H          1 UNL1 0.000
    52 H      -2.178841     0.663031    -6.425157 H          1 UNL1 0.000
    53 H      -0.663257     0.487028    -5.526204 H          1 UNL1 0.000
    54 H      -1.627143     2.002809    -5.406985 H          1 UNL1 0.000
@<TRIPOS>BOND
     1      1      2   1
     2      1      3   1
     3      3      4   2
     4      4      5   1
     5      5      6   2
     6      6      7   1
     7      7      8   2
     8      8      3   1
     9      2      9   2
    10      9     10   1
    11     10     11   2
    12     11     12   1
    13     12     13   2
    14     13      2   1
    15     11     14   1
    16     14     15   2
    17     15     16   1
    18     16     17   2
    19     17     12   1
    20     18     19   2
    21     19     20   1
    22     20     21   2
    23     21     22   1
    24     22     23   2
    25     23     18   1
    26      1     18   1
    27      4     24   1
    28      5     25   1
    29      6     26   1
    30      7     27   1
    31      8     28   1
    32      9     29   1
    33     10     30   1
    34     13     31   1
    35     14     32   1
    36     15     33   1
    37     16     34   1
    38     17     35   1
    39     19     36   1
    40     20     37   1
    41     21     38   1
    42     22     39   1
    43     40     41   2
    44     41     42   1
    45     42     43   2
    46     43     44   1
    47     44     45   2
    48     45     40   1
    49     46     47   1
    50     43     46   1
    51     41     48   1
    52     42     49   1
    53     44     50   1
    54     45     51   1
    55     47     52   1
    56     47     53   1
    57     47     54   1
    58     23     40   1
