# Produced with molli package
@<TRIPOS>MOLECULE
F_2_S
55 59 0 0 0
SMALL
USER_CHARGES

@<TRIPOS>ATOM
     1 N      -1.795295     0.532677     1.794030 N          1 UNL1 0.000
     2 C      -2.490463    -0.743980     1.738868 C          1 UNL1 0.000
     3 C      -2.432829     1.823296     2.010076 C          1 UNL1 0.000
     4 C      -3.726265     1.968104     2.537686 C          1 UNL1 0.000
     5 C      -4.352032     3.220353     2.624961 C          1 UNL1 0.000
     6 C      -3.676061     4.372992     2.242010 C          1 UNL1 0.000
     7 C      -2.362171     4.277627     1.808144 C          1 UNL1 0.000
     8 C      -1.750542     3.023473     1.708510 C          1 UNL1 0.000
     9 C      -1.822542    -1.943821     2.058256 C          1 UNL1 0.000
    10 C      -2.484721    -3.177353     2.088828 C          1 UNL1 0.000
    11 C      -3.854895    -3.255703     1.827163 C          1 UNL1 0.000
    12 C      -4.545431    -2.082922     1.459590 C          1 UNL1 0.000
    13 C      -3.840427    -0.863452     1.364703 C          1 UNL1 0.000
    14 C      -4.553424    -4.469863     1.936173 C          1 UNL1 0.000
    15 C      -5.929916    -4.520507     1.716025 C          1 UNL1 0.000
    16 C      -6.618378    -3.363039     1.366420 C          1 UNL1 0.000
    17 C      -5.929415    -2.155976     1.225418 C          1 UNL1 0.000
    18 C      -0.348930     0.510546     1.702582 C          1 UNL1 0.000
    19 C       0.394635     0.574045     2.899897 C          1 UNL1 0.000
    20 C       1.786548     0.540855     2.874844 C          1 UNL1 0.000
    21 C       2.453007     0.456103     1.656158 C          1 UNL1 0.000
    22 C       1.729700     0.402984     0.460679 C          1 UNL1 0.000
    23 C       0.322654     0.428209     0.455783 C          1 UNL1 0.000
    24 H      -4.281231     1.112292     2.908197 H          1 UNL1 0.000
    25 H      -5.371380     3.289477     2.995952 H          1 UNL1 0.000
    26 H      -4.163590     5.342077     2.299734 H          1 UNL1 0.000
    27 H      -1.807688     5.171946     1.536188 H          1 UNL1 0.000
    28 H      -0.719448     3.007944     1.367057 H          1 UNL1 0.000
    29 H      -0.767404    -1.944671     2.317969 H          1 UNL1 0.000
    30 H      -1.920976    -4.068617     2.354772 H          1 UNL1 0.000
    31 H      -4.376482     0.007151     0.996762 H          1 UNL1 0.000
    32 H      -4.031067    -5.382876     2.213272 H          1 UNL1 0.000
    33 H      -6.463856    -5.460857     1.826033 H          1 UNL1 0.000
    34 H      -7.693496    -3.396412     1.209837 H          1 UNL1 0.000
    35 H      -6.488664    -1.261329     0.960314 H          1 UNL1 0.000
    36 H      -0.127318     0.636478     3.852317 H          1 UNL1 0.000
    37 H       2.347764     0.582364     3.804720 H          1 UNL1 0.000
    38 H       3.539950     0.438738     1.632750 H          1 UNL1 0.000
    39 H       2.273558     0.355348    -0.481222 H          1 UNL1 0.000
    40 C      -0.389582     0.413575    -0.832204 C          1 UNL1 0.000
    41 C      -0.889078     1.598678    -1.390362 C          1 UNL1 0.000
    42 C      -1.592535     1.589403    -2.596508 C          1 UNL1 0.000
    43 C      -1.791585     0.391860    -3.289764 C          1 UNL1 0.000
    44 C      -1.258855    -0.791923    -2.767943 C          1 UNL1 0.000
    45 C      -0.570461    -0.778913    -1.546324 C          1 UNL1 0.000
    46 C      -2.563645     0.446351    -4.567348 C          1 UNL1 0.000
    47 C      -2.950867    -0.832974    -5.261335 C          1 UNL1 0.000
    48 O      -2.859030     1.535108    -5.055269 O          1 UNL1 0.000
    49 H      -0.741893     2.549669    -0.886993 H          1 UNL1 0.000
    50 H      -1.987120     2.526336    -2.985807 H          1 UNL1 0.000
    51 H      -1.361700    -1.741207    -3.283735 H          1 UNL1 0.000
    52 H      -0.180958    -1.713040    -1.145650 H          1 UNL1 0.000
    53 H      -3.883001    -0.664210    -5.810096 H          1 UNL1 0.000
    54 H      -3.144758    -1.641895    -4.554854 H          1 UNL1 0.000
    55 H      -2.164256    -1.117908    -5.964023 H          1 UNL1 0.000
@<TRIPOS>BOND
     1      1      2   1
     2      1      3   1
     3      3      4   2
     4      4      5   1
     5      5      6   2
     6      6      7   1
     7      7      8   2
     8      8      3   1
     9      2      9   2
    10      9     10   1
    11     10     11   2
    12     11     12   1
    13     12     13   2
    14     13      2   1
    15     11     14   1
    16     14     15   2
    17     15     16   1
    18     16     17   2
    19     17     12   1
    20     18     19   2
    21     19     20   1
    22     20     21   2
    23     21     22   1
    24     22     23   2
    25     23     18   1
    26      1     18   1
    27      4     24   1
    28      5     25   1
    29      6     26   1
    30      7     27   1
    31      8     28   1
    32      9     29   1
    33     10     30   1
    34     13     31   1
    35     14     32   1
    36     15     33   1
    37     16     34   1
    38     17     35   1
    39     19     36   1
    40     20     37   1
    41     21     38   1
    42     22     39   1
    43     40     41   2
    44     41     42   1
    45     42     43   2
    46     43     44   1
    47     44     45   2
    48     45     40   1
    49     43     46   1
    50     46     47   1
    51     46     48   2
    52     41     49   1
    53     42     50   1
    54     44     51   1
    55     45     52   1
    56     47     53   1
    57     47     54   1
    58     47     55   1
    59     23     40   1
