# Produced with molli package
@<TRIPOS>MOLECULE
F_2_N
47 51 0 0 0
SMALL
USER_CHARGES

@<TRIPOS>ATOM
     1 N      -1.839837     0.457750     1.860861 N          1 UNL1 0.000
     2 C      -2.529989    -0.819028     1.938956 C          1 UNL1 0.000
     3 C      -2.487662     1.748862     1.722962 C          1 UNL1 0.000
     4 C      -3.694302     1.925677     1.026537 C          1 UNL1 0.000
     5 C      -4.308370     3.181928     0.934322 C          1 UNL1 0.000
     6 C      -3.702364     4.303133     1.492707 C          1 UNL1 0.000
     7 C      -2.478308     4.171114     2.135868 C          1 UNL1 0.000
     8 C      -1.882706     2.910786     2.250648 C          1 UNL1 0.000
     9 C      -1.830860    -2.029804     1.757946 C          1 UNL1 0.000
    10 C      -2.477465    -3.270579     1.742466 C          1 UNL1 0.000
    11 C      -3.862705    -3.348588     1.899920 C          1 UNL1 0.000
    12 C      -4.589322    -2.166272     2.139088 C          1 UNL1 0.000
    13 C      -3.907091    -0.930628     2.202320 C          1 UNL1 0.000
    14 C      -4.535810    -4.578658     1.816106 C          1 UNL1 0.000
    15 C      -5.923150    -4.637499     1.946898 C          1 UNL1 0.000
    16 C      -6.647234    -3.472709     2.178534 C          1 UNL1 0.000
    17 C      -5.985548    -2.246583     2.284670 C          1 UNL1 0.000
    18 C      -0.394242     0.454497     1.809294 C          1 UNL1 0.000
    19 C       0.326319     0.358990     3.015586 C          1 UNL1 0.000
    20 C       1.720664     0.388978     3.013663 C          1 UNL1 0.000
    21 C       2.412904     0.501919     1.809386 C          1 UNL1 0.000
    22 C       1.714635     0.578283     0.602188 C          1 UNL1 0.000
    23 C       0.312468     0.551528     0.587930 C          1 UNL1 0.000
    24 H      -4.166759     1.091150     0.516023 H          1 UNL1 0.000
    25 H      -5.256822     3.282323     0.413032 H          1 UNL1 0.000
    26 H      -4.175237     5.278390     1.414741 H          1 UNL1 0.000
    27 H      -1.982613     5.043365     2.553972 H          1 UNL1 0.000
    28 H      -0.931535     2.852076     2.772718 H          1 UNL1 0.000
    29 H      -0.755876    -2.038227     1.598332 H          1 UNL1 0.000
    30 H      -1.886302    -4.167861     1.579166 H          1 UNL1 0.000
    31 H      -4.485329    -0.047105     2.453600 H          1 UNL1 0.000
    32 H      -3.984000    -5.497272     1.632983 H          1 UNL1 0.000
    33 H      -6.435844    -5.592105     1.861913 H          1 UNL1 0.000
    34 H      -7.729468    -3.514937     2.270724 H          1 UNL1 0.000
    35 H      -6.571828    -1.347493     2.457484 H          1 UNL1 0.000
    36 H      -0.212032     0.278894     3.957212 H          1 UNL1 0.000
    37 H       2.265602     0.328344     3.952287 H          1 UNL1 0.000
    38 H       3.499938     0.525354     1.807906 H          1 UNL1 0.000
    39 H       2.269427     0.650683    -0.330959 H          1 UNL1 0.000
    40 C      -0.366169     0.588947    -0.700840 C          1 UNL1 0.000
    41 C      -0.762297    -0.571153    -1.337232 C          1 UNL1 0.000
    42 S      -1.533996    -0.263777    -2.833203 S          1 UNL1 0.000
    43 C      -1.321913     1.423739    -2.655358 C          1 UNL1 0.000
    44 C      -0.682377     1.745220    -1.477858 C          1 UNL1 0.000
    45 H      -0.649509    -1.591333    -0.997816 H          1 UNL1 0.000
    46 H      -1.679173     2.097843    -3.420962 H          1 UNL1 0.000
    47 H      -0.464292     2.763026    -1.179218 H          1 UNL1 0.000
@<TRIPOS>BOND
     1      1      2   1
     2      1      3   1
     3      3      4   2
     4      4      5   1
     5      5      6   2
     6      6      7   1
     7      7      8   2
     8      8      3   1
     9      2      9   2
    10      9     10   1
    11     10     11   2
    12     11     12   1
    13     12     13   2
    14     13      2   1
    15     11     14   1
    16     14     15   2
    17     15     16   1
    18     16     17   2
    19     17     12   1
    20     18     19   2
    21     19     20   1
    22     20     21   2
    23     21     22   1
    24     22     23   2
    25     23     18   1
    26      1     18   1
    27      4     24   1
    28      5     25   1
    29      6     26   1
    30      7     27   1
    31      8     28   1
    32      9     29   1
    33     10     30   1
    34     13     31   1
    35     14     32   1
    36     15     33   1
    37     16     34   1
    38     17     35   1
    39     19     36   1
    40     20     37   1
    41     21     38   1
    42     22     39   1
    43     40     41   2
    44     41     42   1
    45     42     43   1
    46     43     44   2
    47     44     40   1
    48     41     45   1
    49     43     46   1
    50     44     47   1
    51     23     40   1
