# Produced with molli package
@<TRIPOS>MOLECULE
F_2_T
53 57 0 0 0
SMALL
USER_CHARGES

@<TRIPOS>ATOM
     1 N      -1.798250     0.510363     1.700962 N          1 UNL1 0.000
     2 C      -2.490105    -0.766581     1.754192 C          1 UNL1 0.000
     3 C      -2.450434     1.805551     1.674669 C          1 UNL1 0.000
     4 C      -3.675579     2.022526     1.022490 C          1 UNL1 0.000
     5 C      -4.300029     3.276811     1.036911 C          1 UNL1 0.000
     6 C      -3.688633     4.358490     1.663383 C          1 UNL1 0.000
     7 C      -2.447834     4.189986     2.264763 C          1 UNL1 0.000
     8 C      -1.839281     2.930567     2.269199 C          1 UNL1 0.000
     9 C      -1.803469    -1.970916     1.496669 C          1 UNL1 0.000
    10 C      -2.449268    -3.212026     1.493433 C          1 UNL1 0.000
    11 C      -3.820134    -3.299931     1.738665 C          1 UNL1 0.000
    12 C      -4.535777    -2.121854     2.038779 C          1 UNL1 0.000
    13 C      -3.852418    -0.887007     2.082494 C          1 UNL1 0.000
    14 C      -4.493454    -4.530806     1.688642 C          1 UNL1 0.000
    15 C      -5.868028    -4.598840     1.912045 C          1 UNL1 0.000
    16 C      -6.581191    -3.438712     2.199162 C          1 UNL1 0.000
    17 C      -5.918611    -2.211176     2.270942 C          1 UNL1 0.000
    18 C      -0.351967     0.507040     1.633029 C          1 UNL1 0.000
    19 C       0.376346     0.394771     2.834977 C          1 UNL1 0.000
    20 C       1.769310     0.407742     2.825994 C          1 UNL1 0.000
    21 C       2.451936     0.518261     1.618218 C          1 UNL1 0.000
    22 C       1.743534     0.605134     0.416811 C          1 UNL1 0.000
    23 C       0.336604     0.597178     0.396592 C          1 UNL1 0.000
    24 H      -4.153559     1.220513     0.466262 H          1 UNL1 0.000
    25 H      -5.261239     3.407305     0.546785 H          1 UNL1 0.000
    26 H      -4.170377     5.332468     1.670985 H          1 UNL1 0.000
    27 H      -1.948584     5.032684     2.735946 H          1 UNL1 0.000
    28 H      -0.874233     2.843374     2.760243 H          1 UNL1 0.000
    29 H      -0.739845    -1.971661     1.276138 H          1 UNL1 0.000
    30 H      -1.866490    -4.104558     1.277183 H          1 UNL1 0.000
    31 H      -4.417956    -0.009812     2.383252 H          1 UNL1 0.000
    32 H      -3.949927    -5.446139     1.464012 H          1 UNL1 0.000
    33 H      -6.380579    -5.555464     1.857402 H          1 UNL1 0.000
    34 H      -7.654204    -3.487400     2.363892 H          1 UNL1 0.000
    35 H      -6.496068    -1.315669     2.491167 H          1 UNL1 0.000
    36 H      -0.157880     0.310143     3.778512 H          1 UNL1 0.000
    37 H       2.319272     0.332857     3.760245 H          1 UNL1 0.000
    38 H       3.538946     0.527434     1.606815 H          1 UNL1 0.000
    39 H       2.295854     0.670426    -0.519200 H          1 UNL1 0.000
    40 C      -0.356008     0.611323    -0.901516 C          1 UNL1 0.000
    41 C      -0.528979    -0.579301    -1.624825 C          1 UNL1 0.000
    42 C      -1.186450    -0.585709    -2.857657 C          1 UNL1 0.000
    43 C      -1.687305     0.602383    -3.396386 C          1 UNL1 0.000
    44 C      -1.496243     1.798078    -2.694494 C          1 UNL1 0.000
    45 C      -0.839633     1.801408    -1.459032 C          1 UNL1 0.000
    46 C      -2.372658     0.605829    -4.730156 C          1 UNL1 0.000
    47 H      -0.156042    -1.518606    -1.223073 H          1 UNL1 0.000
    48 H      -1.308662    -1.527294    -3.387678 H          1 UNL1 0.000
    49 H      -1.863512     2.737506    -3.100733 H          1 UNL1 0.000
    50 H      -0.715950     2.741281    -0.925458 H          1 UNL1 0.000
    51 H      -1.670100     0.910369    -5.511943 H          1 UNL1 0.000
    52 H      -3.223839     1.294517    -4.724829 H          1 UNL1 0.000
    53 H      -2.760542    -0.388068    -4.978059 H          1 UNL1 0.000
@<TRIPOS>BOND
     1      1      2   1
     2      1      3   1
     3      3      4   2
     4      4      5   1
     5      5      6   2
     6      6      7   1
     7      7      8   2
     8      8      3   1
     9      2      9   2
    10      9     10   1
    11     10     11   2
    12     11     12   1
    13     12     13   2
    14     13      2   1
    15     11     14   1
    16     14     15   2
    17     15     16   1
    18     16     17   2
    19     17     12   1
    20     18     19   2
    21     19     20   1
    22     20     21   2
    23     21     22   1
    24     22     23   2
    25     23     18   1
    26      1     18   1
    27      4     24   1
    28      5     25   1
    29      6     26   1
    30      7     27   1
    31      8     28   1
    32      9     29   1
    33     10     30   1
    34     13     31   1
    35     14     32   1
    36     15     33   1
    37     16     34   1
    38     17     35   1
    39     19     36   1
    40     20     37   1
    41     21     38   1
    42     22     39   1
    43     40     41   2
    44     41     42   1
    45     42     43   2
    46     43     44   1
    47     44     45   2
    48     45     40   1
    49     43     46   1
    50     41     47   1
    51     42     48   1
    52     44     49   1
    53     45     50   1
    54     46     51   1
    55     46     52   1
    56     46     53   1
    57     23     40   1
