# Produced with molli package
@<TRIPOS>MOLECULE
F_2_L
54 59 0 0 0
SMALL
USER_CHARGES

@<TRIPOS>ATOM
     1 N      -1.833545     0.431852     1.800485 N          1 UNL1 0.000
     2 C      -2.535352    -0.837313     1.849131 C          1 UNL1 0.000
     3 C      -2.490889     1.721210     1.742652 C          1 UNL1 0.000
     4 C      -3.681006     1.921811     1.022023 C          1 UNL1 0.000
     5 C      -4.303784     3.174794     0.977488 C          1 UNL1 0.000
     6 C      -3.730627     4.265325     1.624961 C          1 UNL1 0.000
     7 C      -2.531326     4.106006     2.309807 C          1 UNL1 0.000
     8 C      -1.919879     2.849507     2.366051 C          1 UNL1 0.000
     9 C      -1.876903    -2.043587     1.545581 C          1 UNL1 0.000
    10 C      -2.547381    -3.271918     1.531338 C          1 UNL1 0.000
    11 C      -3.913223    -3.339256     1.820712 C          1 UNL1 0.000
    12 C      -4.595362    -2.158688     2.173117 C          1 UNL1 0.000
    13 C      -3.890758    -0.936516     2.216372 C          1 UNL1 0.000
    14 C      -4.611798    -4.556654     1.761833 C          1 UNL1 0.000
    15 C      -5.979052    -4.604059     2.035257 C          1 UNL1 0.000
    16 C      -6.657875    -3.440224     2.380945 C          1 UNL1 0.000
    17 C      -5.970642    -2.226420     2.457243 C          1 UNL1 0.000
    18 C      -0.388373     0.428516     1.734119 C          1 UNL1 0.000
    19 C       0.337575     0.311362     2.936764 C          1 UNL1 0.000
    20 C       1.731017     0.325641     2.931793 C          1 UNL1 0.000
    21 C       2.417329     0.443633     1.727082 C          1 UNL1 0.000
    22 C       1.711933     0.535075     0.524821 C          1 UNL1 0.000
    23 C       0.304619     0.524503     0.500136 C          1 UNL1 0.000
    24 H      -4.124175     1.105615     0.456696 H          1 UNL1 0.000
    25 H      -5.231756     3.297048     0.425344 H          1 UNL1 0.000
    26 H      -4.210918     5.239332     1.586669 H          1 UNL1 0.000
    27 H      -2.066645     4.955392     2.803766 H          1 UNL1 0.000
    28 H      -0.987857     2.764207     2.917721 H          1 UNL1 0.000
    29 H      -0.821085    -2.054632     1.290188 H          1 UNL1 0.000
    30 H      -1.991052    -4.168723     1.271909 H          1 UNL1 0.000
    31 H      -4.427926    -0.050687     2.542352 H          1 UNL1 0.000
    32 H      -4.095840    -5.474520     1.491591 H          1 UNL1 0.000
    33 H      -6.511817    -5.549363     1.973743 H          1 UNL1 0.000
    34 H      -7.724472    -3.473499     2.587380 H          1 UNL1 0.000
    35 H      -6.520730    -1.327118     2.722941 H          1 UNL1 0.000
    36 H      -0.198092     0.220582     3.878867 H          1 UNL1 0.000
    37 H       2.278770     0.245376     3.866895 H          1 UNL1 0.000
    38 H       3.504321     0.453641     1.718093 H          1 UNL1 0.000
    39 H       2.266652     0.604693    -0.409598 H          1 UNL1 0.000
    40 C      -0.379334     0.533659    -0.804244 C          1 UNL1 0.000
    41 C      -0.924121     1.710428    -1.333728 C          1 UNL1 0.000
    42 C      -1.575596     1.731299    -2.574383 C          1 UNL1 0.000
    43 C      -1.657410     0.528659    -3.283733 C          1 UNL1 0.000
    44 C      -1.120553    -0.663718    -2.802709 C          1 UNL1 0.000
    45 C      -0.472289    -0.656926    -1.552692 C          1 UNL1 0.000
    46 N      -2.229151     0.249621    -4.504739 N          1 UNL1 0.000
    47 C      -2.067649    -1.075784    -4.812517 C          1 UNL1 0.000
    48 C      -1.385337    -1.667773    -3.774411 C          1 UNL1 0.000
    49 H      -0.855199     2.636859    -0.765716 H          1 UNL1 0.000
    50 H      -2.001585     2.651241    -2.960043 H          1 UNL1 0.000
    51 H      -0.051539    -1.580623    -1.165678 H          1 UNL1 0.000
    52 H      -2.698924     0.929968    -5.085302 H          1 UNL1 0.000
    53 H      -2.452819    -1.482243    -5.737812 H          1 UNL1 0.000
    54 H      -1.106256    -2.711459    -3.715328 H          1 UNL1 0.000
@<TRIPOS>BOND
     1      1      2   1
     2      1      3   1
     3      3      4   2
     4      4      5   1
     5      5      6   2
     6      6      7   1
     7      7      8   2
     8      8      3   1
     9      2      9   2
    10      9     10   1
    11     10     11   2
    12     11     12   1
    13     12     13   2
    14     13      2   1
    15     11     14   1
    16     14     15   2
    17     15     16   1
    18     16     17   2
    19     17     12   1
    20     18     19   2
    21     19     20   1
    22     20     21   2
    23     21     22   1
    24     22     23   2
    25     23     18   1
    26      1     18   1
    27      4     24   1
    28      5     25   1
    29      6     26   1
    30      7     27   1
    31      8     28   1
    32      9     29   1
    33     10     30   1
    34     13     31   1
    35     14     32   1
    36     15     33   1
    37     16     34   1
    38     17     35   1
    39     19     36   1
    40     20     37   1
    41     21     38   1
    42     22     39   1
    43     40     41   2
    44     41     42   1
    45     42     43   2
    46     43     44   1
    47     44     45   2
    48     45     40   1
    49     43     46   1
    50     46     47   1
    51     47     48   2
    52     48     44   1
    53     41     49   1
    54     42     50   1
    55     45     51   1
    56     46     52   1
    57     47     53   1
    58     48     54   1
    59     23     40   1
