# Produced with molli package
@<TRIPOS>MOLECULE
F_2_K
52 56 0 0 0
SMALL
USER_CHARGES

@<TRIPOS>ATOM
     1 N      -1.828408     0.483726     1.739468 N          1 UNL1 0.000
     2 C      -2.520695    -0.790681     1.798802 C          1 UNL1 0.000
     3 C      -2.492562     1.771060     1.690010 C          1 UNL1 0.000
     4 C      -3.702800     1.964016     1.001120 C          1 UNL1 0.000
     5 C      -4.330940     3.214942     0.965388 C          1 UNL1 0.000
     6 C      -3.743295     4.312269     1.587392 C          1 UNL1 0.000
     7 C      -2.524331     4.161955     2.237914 C          1 UNL1 0.000
     8 C      -1.908102     2.907406     2.287145 C          1 UNL1 0.000
     9 C      -1.852062    -1.993313     1.498327 C          1 UNL1 0.000
    10 C      -2.509285    -3.228672     1.502794 C          1 UNL1 0.000
    11 C      -3.871174    -3.308946     1.803441 C          1 UNL1 0.000
    12 C      -4.564699    -2.130615     2.147427 C          1 UNL1 0.000
    13 C      -3.872044    -0.901749     2.175153 C          1 UNL1 0.000
    14 C      -4.556581    -4.534007     1.766866 C          1 UNL1 0.000
    15 C      -5.920846    -4.593798     2.050716 C          1 UNL1 0.000
    16 C      -6.611011    -3.432634     2.384637 C          1 UNL1 0.000
    17 C      -5.936660    -2.210905     2.440579 C          1 UNL1 0.000
    18 C      -0.381823     0.485924     1.695109 C          1 UNL1 0.000
    19 C       0.326155     0.366748     2.908037 C          1 UNL1 0.000
    20 C       1.719223     0.382019     2.923026 C          1 UNL1 0.000
    21 C       2.422746     0.502176     1.728427 C          1 UNL1 0.000
    22 C       1.735350     0.596313     0.515763 C          1 UNL1 0.000
    23 C       0.328721     0.586276     0.471086 C          1 UNL1 0.000
    24 H      -4.164159     1.144492     0.456119 H          1 UNL1 0.000
    25 H      -5.276319     3.330672     0.441398 H          1 UNL1 0.000
    26 H      -4.228802     5.284173     1.556847 H          1 UNL1 0.000
    27 H      -2.048764     5.016811     2.712004 H          1 UNL1 0.000
    28 H      -0.960734     2.832362     2.813790 H          1 UNL1 0.000
    29 H      -0.797446    -1.996804     1.238403 H          1 UNL1 0.000
    30 H      -1.944533    -4.123701     1.252593 H          1 UNL1 0.000
    31 H      -4.416913    -0.020396     2.502445 H          1 UNL1 0.000
    32 H      -4.032085    -5.450792     1.507128 H          1 UNL1 0.000
    33 H      -6.443369    -5.545779     2.007346 H          1 UNL1 0.000
    34 H      -7.675724    -3.475557     2.598670 H          1 UNL1 0.000
    35 H      -6.496089    -1.314456     2.698976 H          1 UNL1 0.000
    36 H      -0.222828     0.274233     3.842483 H          1 UNL1 0.000
    37 H       2.253424     0.301117     3.866099 H          1 UNL1 0.000
    38 H       3.509962     0.513091     1.736590 H          1 UNL1 0.000
    39 H       2.306357     0.669788    -0.408373 H          1 UNL1 0.000
    40 C      -0.340712     0.602716    -0.840022 C          1 UNL1 0.000
    41 C      -0.395259    -0.569511    -1.617340 C          1 UNL1 0.000
    42 C      -1.034262    -0.582619    -2.859195 C          1 UNL1 0.000
    43 C      -1.627773     0.591266    -3.331326 C          1 UNL1 0.000
    44 C      -1.578624     1.772748    -2.584156 C          1 UNL1 0.000
    45 C      -0.926555     1.773580    -1.347312 C          1 UNL1 0.000
    46 N      -2.307235     0.583255    -4.626101 N          1 UNL1 0.000
    47 O      -3.202855     1.418666    -4.810213 O          1 UNL1 0.000
    48 O      -1.941105    -0.259022    -5.459579 O          1 UNL1 0.000
    49 H       0.055484    -1.488371    -1.245727 H          1 UNL1 0.000
    50 H      -1.069672    -1.505761    -3.433454 H          1 UNL1 0.000
    51 H      -2.037940     2.689920    -2.945546 H          1 UNL1 0.000
    52 H      -0.891116     2.694246    -0.766902 H          1 UNL1 0.000
@<TRIPOS>BOND
     1      1      2   1
     2      1      3   1
     3      3      4   2
     4      4      5   1
     5      5      6   2
     6      6      7   1
     7      7      8   2
     8      8      3   1
     9      2      9   2
    10      9     10   1
    11     10     11   2
    12     11     12   1
    13     12     13   2
    14     13      2   1
    15     11     14   1
    16     14     15   2
    17     15     16   1
    18     16     17   2
    19     17     12   1
    20     18     19   2
    21     19     20   1
    22     20     21   2
    23     21     22   1
    24     22     23   2
    25     23     18   1
    26      1     18   1
    27      4     24   1
    28      5     25   1
    29      6     26   1
    30      7     27   1
    31      8     28   1
    32      9     29   1
    33     10     30   1
    34     13     31   1
    35     14     32   1
    36     15     33   1
    37     16     34   1
    38     17     35   1
    39     19     36   1
    40     20     37   1
    41     21     38   1
    42     22     39   1
    43     40     41   2
    44     41     42   1
    45     42     43   2
    46     43     44   1
    47     44     45   2
    48     45     40   1
    49     46     47   2
    50     46     48   1
    51     43     46   1
    52     41     49   1
    53     42     50   1
    54     44     51   1
    55     45     52   1
    56     23     40   1
