# Produced with molli package
@<TRIPOS>MOLECULE
F_2_R
51 55 0 0 0
SMALL
USER_CHARGES

@<TRIPOS>ATOM
     1 N      -1.868394     0.571309     1.729357 N          1 UNL1 0.000
     2 C      -2.553080    -0.710664     1.722889 C          1 UNL1 0.000
     3 C      -2.534520     1.846615     1.904011 C          1 UNL1 0.000
     4 C      -3.765130     1.969781     2.572323 C          1 UNL1 0.000
     5 C      -4.408498     3.207227     2.701446 C          1 UNL1 0.000
     6 C      -3.817804     4.360517     2.195970 C          1 UNL1 0.000
     7 C      -2.577977     4.279330     1.574521 C          1 UNL1 0.000
     8 C      -1.945218     3.039516     1.435854 C          1 UNL1 0.000
     9 C      -1.891192    -1.888302     2.120886 C          1 UNL1 0.000
    10 C      -2.539061    -3.128109     2.145991 C          1 UNL1 0.000
    11 C      -3.882467    -3.237056     1.778373 C          1 UNL1 0.000
    12 C      -4.568305    -2.083691     1.343010 C          1 UNL1 0.000
    13 C      -3.885792    -0.849248     1.291987 C          1 UNL1 0.000
    14 C      -4.555473    -4.468357     1.835352 C          1 UNL1 0.000
    15 C      -5.900947    -4.560058     1.480425 C          1 UNL1 0.000
    16 C      -6.584046    -3.424629     1.055690 C          1 UNL1 0.000
    17 C      -5.921372    -2.196945     0.980385 C          1 UNL1 0.000
    18 C      -0.421565     0.564278     1.681977 C          1 UNL1 0.000
    19 C       0.282548     0.656269     2.901444 C          1 UNL1 0.000
    20 C       1.674517     0.613724     2.926645 C          1 UNL1 0.000
    21 C       2.382756     0.490629     1.735969 C          1 UNL1 0.000
    22 C       1.700313     0.425127     0.518062 C          1 UNL1 0.000
    23 C       0.292632     0.466996     0.461757 C          1 UNL1 0.000
    24 H      -4.240353     1.103854     3.025192 H          1 UNL1 0.000
    25 H      -5.369470     3.266081     3.206045 H          1 UNL1 0.000
    26 H      -4.315685     5.320942     2.298223 H          1 UNL1 0.000
    27 H      -2.097804     5.177353     1.194868 H          1 UNL1 0.000
    28 H      -0.978514     3.024749     0.942978 H          1 UNL1 0.000
    29 H      -0.850131    -1.867581     2.429790 H          1 UNL1 0.000
    30 H      -1.979480    -4.003871     2.465924 H          1 UNL1 0.000
    31 H      -4.412295     0.014974     0.895456 H          1 UNL1 0.000
    32 H      -4.034791    -5.365037     2.164063 H          1 UNL1 0.000
    33 H      -6.413485    -5.516703     1.537581 H          1 UNL1 0.000
    34 H      -7.634050    -3.492715     0.783646 H          1 UNL1 0.000
    35 H      -6.474886    -1.321680     0.648063 H          1 UNL1 0.000
    36 H      -0.271313     0.739241     3.834172 H          1 UNL1 0.000
    37 H       2.202402     0.667972     3.875148 H          1 UNL1 0.000
    38 H       3.469174     0.450064     1.752033 H          1 UNL1 0.000
    39 H       2.277167     0.339216    -0.401305 H          1 UNL1 0.000
    40 C      -0.374430     0.497243    -0.846819 C          1 UNL1 0.000
    41 N      -1.121503    -0.583650    -1.181031 N          1 UNL1 0.000
    42 C      -1.799172    -0.547058    -2.355055 C          1 UNL1 0.000
    43 C      -1.724054     0.519476    -3.234826 C          1 UNL1 0.000
    44 C      -0.921849     1.612694    -2.912489 C          1 UNL1 0.000
    45 C      -0.240110     1.599431    -1.697148 C          1 UNL1 0.000
    46 N      -2.474658     0.488453    -4.477255 N          1 UNL1 0.000
    47 O      -2.112248     1.253642    -5.382696 O          1 UNL1 0.000
    48 O      -3.429294    -0.295873    -4.555399 O          1 UNL1 0.000
    49 H      -2.407515    -1.426381    -2.550931 H          1 UNL1 0.000
    50 H      -0.832114     2.470277    -3.574398 H          1 UNL1 0.000
    51 H       0.373143     2.448020    -1.407346 H          1 UNL1 0.000
@<TRIPOS>BOND
     1      1      2   1
     2      1      3   1
     3      3      4   2
     4      4      5   1
     5      5      6   2
     6      6      7   1
     7      7      8   2
     8      8      3   1
     9      2      9   2
    10      9     10   1
    11     10     11   2
    12     11     12   1
    13     12     13   2
    14     13      2   1
    15     11     14   1
    16     14     15   2
    17     15     16   1
    18     16     17   2
    19     17     12   1
    20     18     19   2
    21     19     20   1
    22     20     21   2
    23     21     22   1
    24     22     23   2
    25     23     18   1
    26      1     18   1
    27      4     24   1
    28      5     25   1
    29      6     26   1
    30      7     27   1
    31      8     28   1
    32      9     29   1
    33     10     30   1
    34     13     31   1
    35     14     32   1
    36     15     33   1
    37     16     34   1
    38     17     35   1
    39     19     36   1
    40     20     37   1
    41     21     38   1
    42     22     39   1
    43     40     41   2
    44     41     42   1
    45     42     43   2
    46     43     44   1
    47     44     45   2
    48     45     40   1
    49     46     47   2
    50     46     48   1
    51     43     46   1
    52     42     49   1
    53     44     50   1
    54     45     51   1
    55     23     40   1
