# Produced with molli package
@<TRIPOS>MOLECULE
F_3_T
65 71 0 0 0
SMALL
USER_CHARGES

@<TRIPOS>ATOM
     1 N      -3.913046     0.520542     0.581152 N          1 UNL1 0.000
     2 C      -4.627317    -0.745695     0.592992 C          1 UNL1 0.000
     3 C      -4.546510     1.822946     0.452735 C          1 UNL1 0.000
     4 C      -5.779972     2.002853    -0.198097 C          1 UNL1 0.000
     5 C      -6.382062     3.263958    -0.294050 C          1 UNL1 0.000
     6 C      -5.742647     4.386676     0.220231 C          1 UNL1 0.000
     7 C      -4.497799     4.250299     0.821382 C          1 UNL1 0.000
     8 C      -3.909584     2.986036     0.934690 C          1 UNL1 0.000
     9 C      -3.982800    -1.947102     0.240835 C          1 UNL1 0.000
    10 C      -4.671471    -3.163662     0.174656 C          1 UNL1 0.000
    11 C      -6.039783    -3.223480     0.451173 C          1 UNL1 0.000
    12 C      -6.705203    -2.049493     0.859550 C          1 UNL1 0.000
    13 C      -5.980166    -0.844185     0.966834 C          1 UNL1 0.000
    14 C      -6.759902    -4.422286     0.322687 C          1 UNL1 0.000
    15 C      -8.131099    -4.458340     0.575727 C          1 UNL1 0.000
    16 C      -8.792828    -3.301465     0.975716 C          1 UNL1 0.000
    17 C      -8.083608    -2.107732     1.126776 C          1 UNL1 0.000
    18 C      -2.418768     0.408362     3.066724 C          1 UNL1 0.000
    19 C      -1.733250     0.403051     4.279922 C          1 UNL1 0.000
    20 C      -0.351619     0.426200     4.278024 C          1 UNL1 0.000
    21 C       0.333630     0.448669     3.062960 C          1 UNL1 0.000
    22 C      -0.334689     0.454516     1.809351 C          1 UNL1 0.000
    23 C      -1.747418     0.441366     1.817274 C          1 UNL1 0.000
    24 C       0.365299     0.482541     0.559705 C          1 UNL1 0.000
    25 C      -0.345251     0.505226    -0.683576 C          1 UNL1 0.000
    26 C      -1.757492     0.520882    -0.678025 C          1 UNL1 0.000
    27 C      -2.448528     0.489696     0.574085 C          1 UNL1 0.000
    28 C       0.312533     0.508080    -1.943331 C          1 UNL1 0.000
    29 C      -0.382225     0.524716    -3.153043 C          1 UNL1 0.000
    30 C      -1.763263     0.542900    -3.143331 C          1 UNL1 0.000
    31 C      -2.437447     0.542940    -1.923964 C          1 UNL1 0.000
    32 H      -6.288606     1.166598    -0.669149 H          1 UNL1 0.000
    33 H      -7.347221     3.366358    -0.783278 H          1 UNL1 0.000
    34 H      -6.205234     5.366536     0.139821 H          1 UNL1 0.000
    35 H      -3.976972     5.123518     1.205717 H          1 UNL1 0.000
    36 H      -2.938475     2.931531     1.419080 H          1 UNL1 0.000
    37 H      -2.927383    -1.964488    -0.017431 H          1 UNL1 0.000
    38 H      -4.126619    -4.057384    -0.120913 H          1 UNL1 0.000
    39 H      -6.500287     0.032499     1.344005 H          1 UNL1 0.000
    40 H      -6.257547    -5.334943     0.009831 H          1 UNL1 0.000
    41 H      -8.681021    -5.388080     0.455869 H          1 UNL1 0.000
    42 H      -9.862721    -3.325377     1.165438 H          1 UNL1 0.000
    43 H      -8.621433    -1.213486     1.433770 H          1 UNL1 0.000
    44 H      -3.506601     0.397757     3.103464 H          1 UNL1 0.000
    45 H      -2.283352     0.385775     5.216627 H          1 UNL1 0.000
    46 H       0.200112     0.427729     5.214086 H          1 UNL1 0.000
    47 H       1.421128     0.468223     3.109206 H          1 UNL1 0.000
    48 H       1.399610     0.491398    -1.998739 H          1 UNL1 0.000
    49 H       0.161333     0.521946    -4.093756 H          1 UNL1 0.000
    50 H      -2.322386     0.553399    -4.074730 H          1 UNL1 0.000
    51 H      -3.525047     0.548347    -1.954943 H          1 UNL1 0.000
    52 C       1.846974     0.490774     0.552729 C          1 UNL1 0.000
    53 C       2.571501    -0.709655     0.604110 C          1 UNL1 0.000
    54 C       3.968822    -0.700682     0.600709 C          1 UNL1 0.000
    55 C       4.669636     0.508350     0.533649 C          1 UNL1 0.000
    56 C       3.952475     1.709343     0.490982 C          1 UNL1 0.000
    57 C       2.555511     1.700610     0.497697 C          1 UNL1 0.000
    58 C       6.169270     0.528617     0.557767 C          1 UNL1 0.000
    59 H       2.044333    -1.660459     0.651757 H          1 UNL1 0.000
    60 H       4.504180    -1.646157     0.650025 H          1 UNL1 0.000
    61 H       4.477350     2.661290     0.452164 H          1 UNL1 0.000
    62 H       2.015871     2.644881     0.460112 H          1 UNL1 0.000
    63 H       6.523762     0.808670     1.554597 H          1 UNL1 0.000
    64 H       6.554813     1.245599    -0.174599 H          1 UNL1 0.000
    65 H       6.584440    -0.452474     0.304533 H          1 UNL1 0.000
@<TRIPOS>BOND
     1      1      2   1
     2      1      3   1
     3      3      4   2
     4      4      5   1
     5      5      6   2
     6      6      7   1
     7      7      8   2
     8      8      3   1
     9      2      9   2
    10      9     10   1
    11     10     11   2
    12     11     12   1
    13     12     13   2
    14     13      2   1
    15     11     14   1
    16     14     15   2
    17     15     16   1
    18     16     17   2
    19     17     12   1
    20     18     19   2
    21     19     20   1
    22     20     21   2
    23     21     22   1
    24     22     23   2
    25     23     18   1
    26     22     24   1
    27     24     25   2
    28     25     26   1
    29     26     27   2
    30     27     23   1
    31     25     28   1
    32     28     29   2
    33     29     30   1
    34     30     31   2
    35     31     26   1
    36      1     27   1
    37      4     32   1
    38      5     33   1
    39      6     34   1
    40      7     35   1
    41      8     36   1
    42      9     37   1
    43     10     38   1
    44     13     39   1
    45     14     40   1
    46     15     41   1
    47     16     42   1
    48     17     43   1
    49     18     44   1
    50     19     45   1
    51     20     46   1
    52     21     47   1
    53     28     48   1
    54     29     49   1
    55     30     50   1
    56     31     51   1
    57     52     53   2
    58     53     54   1
    59     54     55   2
    60     55     56   1
    61     56     57   2
    62     57     52   1
    63     55     58   1
    64     53     59   1
    65     54     60   1
    66     56     61   1
    67     57     62   1
    68     58     63   1
    69     58     64   1
    70     58     65   1
    71     24     52   1
