# Produced with molli package
@<TRIPOS>MOLECULE
F_3_P
66 72 0 0 0
SMALL
USER_CHARGES

@<TRIPOS>ATOM
     1 N      -3.916023     0.439245     0.562873 N          1 UNL1 0.000
     2 C      -4.615024    -0.835956     0.598545 C          1 UNL1 0.000
     3 C      -4.563787     1.735856     0.458112 C          1 UNL1 0.000
     4 C      -5.781071     1.919462    -0.220649 C          1 UNL1 0.000
     5 C      -6.406501     3.171701    -0.278471 C          1 UNL1 0.000
     6 C      -5.805495     4.283096     0.303046 C          1 UNL1 0.000
     7 C      -4.572956     4.145867     0.928649 C          1 UNL1 0.000
     8 C      -3.960960     2.890053     1.001135 C          1 UNL1 0.000
     9 C      -3.936264    -2.042197     0.335314 C          1 UNL1 0.000
    10 C      -4.596611    -3.276170     0.317359 C          1 UNL1 0.000
    11 C      -5.972666    -3.350763     0.545986 C          1 UNL1 0.000
    12 C      -6.677925    -2.168852     0.850671 C          1 UNL1 0.000
    13 C      -5.981135    -0.943651     0.917412 C          1 UNL1 0.000
    14 C      -6.661342    -4.572434     0.472217 C          1 UNL1 0.000
    15 C      -8.040658    -4.624100     0.672917 C          1 UNL1 0.000
    16 C      -8.742949    -3.458488     0.963238 C          1 UNL1 0.000
    17 C      -8.065386    -2.241206     1.062105 C          1 UNL1 0.000
    18 C      -2.398255     0.347332     3.037365 C          1 UNL1 0.000
    19 C      -1.703449     0.352087     4.244613 C          1 UNL1 0.000
    20 C      -0.321991     0.392291     4.230744 C          1 UNL1 0.000
    21 C       0.351908     0.424155     3.009880 C          1 UNL1 0.000
    22 C      -0.325821     0.425378     1.761858 C          1 UNL1 0.000
    23 C      -1.739238     0.390524     1.782091 C          1 UNL1 0.000
    24 C       0.361692     0.469515     0.506130 C          1 UNL1 0.000
    25 C      -0.357964     0.466136    -0.731132 C          1 UNL1 0.000
    26 C      -1.771950     0.453571    -0.713217 C          1 UNL1 0.000
    27 C      -2.450672     0.426870     0.544930 C          1 UNL1 0.000
    28 C       0.287967     0.474231    -1.996326 C          1 UNL1 0.000
    29 C      -0.416909     0.459698    -3.199943 C          1 UNL1 0.000
    30 C      -1.798510     0.445880    -3.178128 C          1 UNL1 0.000
    31 C      -2.461861     0.446807    -1.952940 C          1 UNL1 0.000
    32 H      -6.258114     1.092291    -0.738816 H          1 UNL1 0.000
    33 H      -7.360816     3.276843    -0.787952 H          1 UNL1 0.000
    34 H      -6.287971     5.255583     0.256467 H          1 UNL1 0.000
    35 H      -4.081444     5.011123     1.366082 H          1 UNL1 0.000
    36 H      -3.001913     2.834085     1.508335 H          1 UNL1 0.000
    37 H      -2.870813    -2.052883     0.121231 H          1 UNL1 0.000
    38 H      -4.021850    -4.173648     0.100235 H          1 UNL1 0.000
    39 H      -6.536835    -0.062738     1.226248 H          1 UNL1 0.000
    40 H      -6.127031    -5.492249     0.244960 H          1 UNL1 0.000
    41 H      -8.565165    -5.572978     0.597586 H          1 UNL1 0.000
    42 H      -9.819304    -3.494524     1.109461 H          1 UNL1 0.000
    43 H      -8.634255    -1.341168     1.284849 H          1 UNL1 0.000
    44 H      -3.486013     0.320883     3.083554 H          1 UNL1 0.000
    45 H      -2.245228     0.327876     5.185829 H          1 UNL1 0.000
    46 H       0.237528     0.399426     5.162017 H          1 UNL1 0.000
    47 H       1.439995     0.452664     3.048027 H          1 UNL1 0.000
    48 H       1.374801     0.485666    -2.061284 H          1 UNL1 0.000
    49 H       0.117664     0.458518    -4.145698 H          1 UNL1 0.000
    50 H      -2.365272     0.432508    -4.104793 H          1 UNL1 0.000
    51 H      -3.550034     0.429579    -1.974112 H          1 UNL1 0.000
    52 C       1.842298     0.542839     0.490050 C          1 UNL1 0.000
    53 C       2.624740    -0.622716     0.431540 C          1 UNL1 0.000
    54 C       4.020252    -0.543868     0.431041 C          1 UNL1 0.000
    55 C       4.640912     0.703082     0.479933 C          1 UNL1 0.000
    56 C       3.882391     1.867056     0.562391 C          1 UNL1 0.000
    57 C       2.489245     1.788523     0.554339 C          1 UNL1 0.000
    58 O       6.001991     0.831153     0.527045 O          1 UNL1 0.000
    59 C       6.604441     0.398039    -0.691627 C          1 UNL1 0.000
    60 H       2.144431    -1.598637     0.397820 H          1 UNL1 0.000
    61 H       4.610365    -1.455003     0.413943 H          1 UNL1 0.000
    62 H       4.373725     2.833366     0.629225 H          1 UNL1 0.000
    63 H       1.903342     2.703825     0.610228 H          1 UNL1 0.000
    64 H       7.649299     0.722947    -0.680234 H          1 UNL1 0.000
    65 H       6.119634     0.853925    -1.562654 H          1 UNL1 0.000
    66 H       6.591325    -0.693460    -0.771600 H          1 UNL1 0.000
@<TRIPOS>BOND
     1      1      2   1
     2      1      3   1
     3      3      4   2
     4      4      5   1
     5      5      6   2
     6      6      7   1
     7      7      8   2
     8      8      3   1
     9      2      9   2
    10      9     10   1
    11     10     11   2
    12     11     12   1
    13     12     13   2
    14     13      2   1
    15     11     14   1
    16     14     15   2
    17     15     16   1
    18     16     17   2
    19     17     12   1
    20     18     19   2
    21     19     20   1
    22     20     21   2
    23     21     22   1
    24     22     23   2
    25     23     18   1
    26     22     24   1
    27     24     25   2
    28     25     26   1
    29     26     27   2
    30     27     23   1
    31     25     28   1
    32     28     29   2
    33     29     30   1
    34     30     31   2
    35     31     26   1
    36      1     27   1
    37      4     32   1
    38      5     33   1
    39      6     34   1
    40      7     35   1
    41      8     36   1
    42      9     37   1
    43     10     38   1
    44     13     39   1
    45     14     40   1
    46     15     41   1
    47     16     42   1
    48     17     43   1
    49     18     44   1
    50     19     45   1
    51     20     46   1
    52     21     47   1
    53     28     48   1
    54     29     49   1
    55     30     50   1
    56     31     51   1
    57     52     53   2
    58     53     54   1
    59     54     55   2
    60     55     56   1
    61     56     57   2
    62     57     52   1
    63     58     59   1
    64     55     58   1
    65     53     60   1
    66     54     61   1
    67     56     62   1
    68     57     63   1
    69     59     64   1
    70     59     65   1
    71     59     66   1
    72     24     52   1
