# Produced with molli package
@<TRIPOS>MOLECULE
F_3_L
66 73 0 0 0
SMALL
USER_CHARGES

@<TRIPOS>ATOM
     1 N      -3.943923     0.506151     0.555600 N          1 UNL1 0.000
     2 C      -4.653543    -0.761784     0.597856 C          1 UNL1 0.000
     3 C      -4.581422     1.803709     0.403293 C          1 UNL1 0.000
     4 C      -5.806958     1.969847    -0.265457 C          1 UNL1 0.000
     5 C      -6.413686     3.226984    -0.382448 C          1 UNL1 0.000
     6 C      -5.786618     4.358351     0.128601 C          1 UNL1 0.000
     7 C      -4.548853     4.234896     0.746767 C          1 UNL1 0.000
     8 C      -3.955988     2.975073     0.880409 C          1 UNL1 0.000
     9 C      -3.999386    -1.970953     0.293309 C          1 UNL1 0.000
    10 C      -4.679360    -3.194341     0.271169 C          1 UNL1 0.000
    11 C      -6.048934    -3.253822     0.542915 C          1 UNL1 0.000
    12 C      -6.726018    -2.068778     0.896088 C          1 UNL1 0.000
    13 C      -6.009997    -0.854991     0.960392 C          1 UNL1 0.000
    14 C      -6.759014    -4.463125     0.464688 C          1 UNL1 0.000
    15 C      -8.131357    -4.499260     0.712122 C          1 UNL1 0.000
    16 C      -8.804966    -3.330853     1.054449 C          1 UNL1 0.000
    17 C      -8.106012    -2.125915     1.155686 C          1 UNL1 0.000
    18 C      -2.466222     0.432958     3.053526 C          1 UNL1 0.000
    19 C      -1.789998     0.449679     4.271517 C          1 UNL1 0.000
    20 C      -0.408245     0.486351     4.279276 C          1 UNL1 0.000
    21 C       0.286061     0.502098     3.069124 C          1 UNL1 0.000
    22 C      -0.372970     0.491048     1.811316 C          1 UNL1 0.000
    23 C      -1.786541     0.459291     1.808854 C          1 UNL1 0.000
    24 C       0.334017     0.520830     0.566833 C          1 UNL1 0.000
    25 C      -0.367683     0.525728    -0.681966 C          1 UNL1 0.000
    26 C      -1.780277     0.510660    -0.687217 C          1 UNL1 0.000
    27 C      -2.478973     0.483495     0.560043 C          1 UNL1 0.000
    28 C       0.298737     0.544361    -1.937002 C          1 UNL1 0.000
    29 C      -0.385957     0.535407    -3.152021 C          1 UNL1 0.000
    30 C      -1.767052     0.512202    -3.152771 C          1 UNL1 0.000
    31 C      -2.450257     0.503370    -1.938441 C          1 UNL1 0.000
    32 H      -6.304747     1.125177    -0.733184 H          1 UNL1 0.000
    33 H      -7.372879     3.319746    -0.885084 H          1 UNL1 0.000
    34 H      -6.253045     5.334969     0.032603 H          1 UNL1 0.000
    35 H      -4.037154     5.114475     1.128859 H          1 UNL1 0.000
    36 H      -2.990828     2.930574     1.377553 H          1 UNL1 0.000
    37 H      -2.941959    -1.990069     0.043125 H          1 UNL1 0.000
    38 H      -4.126262    -4.095389     0.015838 H          1 UNL1 0.000
    39 H      -6.539952     0.031329     1.299107 H          1 UNL1 0.000
    40 H      -6.247503    -5.385071     0.197202 H          1 UNL1 0.000
    41 H      -8.672923    -5.438229     0.632958 H          1 UNL1 0.000
    42 H      -9.875802    -3.354823     1.238842 H          1 UNL1 0.000
    43 H      -8.652759    -1.223117     1.418859 H          1 UNL1 0.000
    44 H      -3.554348     0.410580     3.082630 H          1 UNL1 0.000
    45 H      -2.346986     0.438226     5.204194 H          1 UNL1 0.000
    46 H       0.135863     0.504598     5.219555 H          1 UNL1 0.000
    47 H       1.373303     0.531796     3.122381 H          1 UNL1 0.000
    48 H       1.386439     0.564640    -1.984810 H          1 UNL1 0.000
    49 H       0.165319     0.546092    -4.088072 H          1 UNL1 0.000
    50 H      -2.318449     0.500974    -4.088602 H          1 UNL1 0.000
    51 H      -3.537541     0.479856    -1.977491 H          1 UNL1 0.000
    52 C       1.816738     0.544910     0.562812 C          1 UNL1 0.000
    53 C       2.546097    -0.652124     0.496849 C          1 UNL1 0.000
    54 C       3.944630    -0.660298     0.449245 C          1 UNL1 0.000
    55 C       4.598166     0.575761     0.472080 C          1 UNL1 0.000
    56 C       3.914501     1.788624     0.547639 C          1 UNL1 0.000
    57 C       2.506932     1.772424     0.595261 C          1 UNL1 0.000
    58 N       5.942229     0.871433     0.425803 N          1 UNL1 0.000
    59 C       6.130701     2.227326     0.473196 C          1 UNL1 0.000
    60 C       4.891973     2.821623     0.551631 C          1 UNL1 0.000
    61 H       2.015019    -1.602675     0.469833 H          1 UNL1 0.000
    62 H       4.492832    -1.594606     0.388928 H          1 UNL1 0.000
    63 H       1.956431     2.708410     0.644863 H          1 UNL1 0.000
    64 H       6.678340     0.182043     0.361977 H          1 UNL1 0.000
    65 H       7.125663     2.650639     0.445600 H          1 UNL1 0.000
    66 H       4.704633     3.886189     0.601906 H          1 UNL1 0.000
@<TRIPOS>BOND
     1      1      2   1
     2      1      3   1
     3      3      4   2
     4      4      5   1
     5      5      6   2
     6      6      7   1
     7      7      8   2
     8      8      3   1
     9      2      9   2
    10      9     10   1
    11     10     11   2
    12     11     12   1
    13     12     13   2
    14     13      2   1
    15     11     14   1
    16     14     15   2
    17     15     16   1
    18     16     17   2
    19     17     12   1
    20     18     19   2
    21     19     20   1
    22     20     21   2
    23     21     22   1
    24     22     23   2
    25     23     18   1
    26     22     24   1
    27     24     25   2
    28     25     26   1
    29     26     27   2
    30     27     23   1
    31     25     28   1
    32     28     29   2
    33     29     30   1
    34     30     31   2
    35     31     26   1
    36      1     27   1
    37      4     32   1
    38      5     33   1
    39      6     34   1
    40      7     35   1
    41      8     36   1
    42      9     37   1
    43     10     38   1
    44     13     39   1
    45     14     40   1
    46     15     41   1
    47     16     42   1
    48     17     43   1
    49     18     44   1
    50     19     45   1
    51     20     46   1
    52     21     47   1
    53     28     48   1
    54     29     49   1
    55     30     50   1
    56     31     51   1
    57     52     53   2
    58     53     54   1
    59     54     55   2
    60     55     56   1
    61     56     57   2
    62     57     52   1
    63     55     58   1
    64     58     59   1
    65     59     60   2
    66     60     56   1
    67     53     61   1
    68     54     62   1
    69     57     63   1
    70     58     64   1
    71     59     65   1
    72     60     66   1
    73     24     52   1
