# Produced with molli package
@<TRIPOS>MOLECULE
F_3_K
64 70 0 0 0
SMALL
USER_CHARGES

@<TRIPOS>ATOM
     1 N      -3.936222     0.498852     0.475685 N          1 UNL1 0.000
     2 C      -4.631364    -0.776749     0.470767 C          1 UNL1 0.000
     3 C      -4.597966     1.784105     0.605277 C          1 UNL1 0.000
     4 C      -5.785082     1.942597     1.342788 C          1 UNL1 0.000
     5 C      -6.416200     3.187253     1.452749 C          1 UNL1 0.000
     6 C      -5.857005     4.310782     0.852638 C          1 UNL1 0.000
     7 C      -4.662106     4.192582     0.152529 C          1 UNL1 0.000
     8 C      -4.039535     2.945653     0.034905 C          1 UNL1 0.000
     9 C      -3.967580    -1.969466     0.814141 C          1 UNL1 0.000
    10 C      -4.636172    -3.197830     0.862750 C          1 UNL1 0.000
    11 C      -6.000878    -3.278981     0.572198 C          1 UNL1 0.000
    12 C      -6.687026    -2.110311     0.182418 C          1 UNL1 0.000
    13 C      -5.985567    -0.889470     0.104046 C          1 UNL1 0.000
    14 C      -6.696920    -4.495088     0.665125 C          1 UNL1 0.000
    15 C      -8.063096    -4.555143     0.390167 C          1 UNL1 0.000
    16 C      -8.744759    -3.403781     0.008117 C          1 UNL1 0.000
    17 C      -8.060582    -2.191302    -0.102643 C          1 UNL1 0.000
    18 C      -2.442971     0.574704     2.968013 C          1 UNL1 0.000
    19 C      -1.761063     0.590860     4.182672 C          1 UNL1 0.000
    20 C      -0.379832     0.582413     4.183125 C          1 UNL1 0.000
    21 C       0.306012     0.558807     2.968786 C          1 UNL1 0.000
    22 C      -0.359559     0.539346     1.713299 C          1 UNL1 0.000
    23 C      -1.773022     0.546753     1.717316 C          1 UNL1 0.000
    24 C       0.341220     0.504872     0.465067 C          1 UNL1 0.000
    25 C      -0.366298     0.462721    -0.779367 C          1 UNL1 0.000
    26 C      -1.780154     0.441196    -0.776469 C          1 UNL1 0.000
    27 C      -2.472373     0.497107     0.470879 C          1 UNL1 0.000
    28 C       0.291927     0.446660    -2.038001 C          1 UNL1 0.000
    29 C      -0.401888     0.406615    -3.247553 C          1 UNL1 0.000
    30 C      -1.783492     0.373547    -3.238701 C          1 UNL1 0.000
    31 C      -2.459318     0.387502    -2.020541 C          1 UNL1 0.000
    32 H      -6.227502     1.100165     1.867860 H          1 UNL1 0.000
    33 H      -7.340524     3.277180     2.017446 H          1 UNL1 0.000
    34 H      -6.343960     5.278271     0.940393 H          1 UNL1 0.000
    35 H      -4.208259     5.067622    -0.305597 H          1 UNL1 0.000
    36 H      -3.110741     2.899960    -0.526724 H          1 UNL1 0.000
    37 H      -2.912809    -1.970723     1.075057 H          1 UNL1 0.000
    38 H      -4.077808    -4.086253     1.149070 H          1 UNL1 0.000
    39 H      -6.522022    -0.013022    -0.250929 H          1 UNL1 0.000
    40 H      -6.179063    -5.404155     0.962830 H          1 UNL1 0.000
    41 H      -8.593488    -5.499754     0.477491 H          1 UNL1 0.000
    42 H      -9.810489    -3.447136    -0.200688 H          1 UNL1 0.000
    43 H      -8.613368    -1.302201    -0.397910 H          1 UNL1 0.000
    44 H      -3.530516     0.571446     3.007793 H          1 UNL1 0.000
    45 H      -2.313912     0.605928     5.117787 H          1 UNL1 0.000
    46 H       0.169001     0.591988     5.120771 H          1 UNL1 0.000
    47 H       1.393150     0.549795     3.019690 H          1 UNL1 0.000
    48 H       1.378587     0.471267    -2.095115 H          1 UNL1 0.000
    49 H       0.141485     0.401038    -4.188538 H          1 UNL1 0.000
    50 H      -2.340559     0.341115    -4.170940 H          1 UNL1 0.000
    51 H      -3.547753     0.367135    -2.049583 H          1 UNL1 0.000
    52 C       1.823600     0.505259     0.462785 C          1 UNL1 0.000
    53 C       2.537292    -0.706126     0.438664 C          1 UNL1 0.000
    54 C       3.934553    -0.712892     0.440621 C          1 UNL1 0.000
    55 C       4.627374     0.503227     0.471407 C          1 UNL1 0.000
    56 C       3.935826     1.720384     0.497305 C          1 UNL1 0.000
    57 C       2.538414     1.715666     0.490520 C          1 UNL1 0.000
    58 N       6.093640     0.502211     0.477708 N          1 UNL1 0.000
    59 O       6.669306    -0.552565     0.174028 O          1 UNL1 0.000
    60 O       6.668361     1.555601     0.786402 O          1 UNL1 0.000
    61 H       1.998276    -1.652601     0.418506 H          1 UNL1 0.000
    62 H       4.461283    -1.664823     0.422197 H          1 UNL1 0.000
    63 H       4.463780     2.671500     0.520680 H          1 UNL1 0.000
    64 H       2.000396     2.662719     0.510517 H          1 UNL1 0.000
@<TRIPOS>BOND
     1      1      2   1
     2      1      3   1
     3      3      4   2
     4      4      5   1
     5      5      6   2
     6      6      7   1
     7      7      8   2
     8      8      3   1
     9      2      9   2
    10      9     10   1
    11     10     11   2
    12     11     12   1
    13     12     13   2
    14     13      2   1
    15     11     14   1
    16     14     15   2
    17     15     16   1
    18     16     17   2
    19     17     12   1
    20     18     19   2
    21     19     20   1
    22     20     21   2
    23     21     22   1
    24     22     23   2
    25     23     18   1
    26     22     24   1
    27     24     25   2
    28     25     26   1
    29     26     27   2
    30     27     23   1
    31     25     28   1
    32     28     29   2
    33     29     30   1
    34     30     31   2
    35     31     26   1
    36      1     27   1
    37      4     32   1
    38      5     33   1
    39      6     34   1
    40      7     35   1
    41      8     36   1
    42      9     37   1
    43     10     38   1
    44     13     39   1
    45     14     40   1
    46     15     41   1
    47     16     42   1
    48     17     43   1
    49     18     44   1
    50     19     45   1
    51     20     46   1
    52     21     47   1
    53     28     48   1
    54     29     49   1
    55     30     50   1
    56     31     51   1
    57     52     53   2
    58     53     54   1
    59     54     55   2
    60     55     56   1
    61     56     57   2
    62     57     52   1
    63     58     59   2
    64     58     60   1
    65     55     58   1
    66     53     61   1
    67     54     62   1
    68     56     63   1
    69     57     64   1
    70     24     52   1
