# Produced with molli package
@<TRIPOS>MOLECULE
F_3_S
67 73 0 0 0
SMALL
USER_CHARGES

@<TRIPOS>ATOM
     1 N      -3.977577     0.538553     0.544807 N          1 UNL1 0.000
     2 C      -4.680224    -0.735072     0.562104 C          1 UNL1 0.000
     3 C      -4.612118     1.841163     0.423287 C          1 UNL1 0.000
     4 C      -5.849504     2.026999    -0.216628 C          1 UNL1 0.000
     5 C      -6.446638     3.291667    -0.306260 C          1 UNL1 0.000
     6 C      -5.797791     4.412291     0.201301 C          1 UNL1 0.000
     7 C      -4.548627     4.270626     0.790891 C          1 UNL1 0.000
     8 C      -3.966848     3.003208     0.899876 C          1 UNL1 0.000
     9 C      -4.008980    -1.934884     0.252223 C          1 UNL1 0.000
    10 C      -4.670674    -3.167185     0.213292 C          1 UNL1 0.000
    11 C      -6.040992    -3.246742     0.469556 C          1 UNL1 0.000
    12 C      -6.738114    -2.073358     0.823695 C          1 UNL1 0.000
    13 C      -6.038861    -0.849577     0.907905 C          1 UNL1 0.000
    14 C      -6.730815    -4.466247     0.374945 C          1 UNL1 0.000
    15 C      -8.104882    -4.524843     0.605446 C          1 UNL1 0.000
    16 C      -8.799804    -3.368726     0.946879 C          1 UNL1 0.000
    17 C      -8.120305    -2.153830     1.065528 C          1 UNL1 0.000
    18 C      -2.506311     0.405150     3.042537 C          1 UNL1 0.000
    19 C      -1.833326     0.376853     4.261824 C          1 UNL1 0.000
    20 C      -0.451349     0.388232     4.273093 C          1 UNL1 0.000
    21 C       0.245446     0.426246     3.064990 C          1 UNL1 0.000
    22 C      -0.409855     0.460303     1.805243 C          1 UNL1 0.000
    23 C      -1.823439     0.451335     1.800238 C          1 UNL1 0.000
    24 C       0.299915     0.510223     0.561823 C          1 UNL1 0.000
    25 C      -0.398435     0.551336    -0.687702 C          1 UNL1 0.000
    26 C      -1.811607     0.561143    -0.694296 C          1 UNL1 0.000
    27 C      -2.512071     0.514345     0.551223 C          1 UNL1 0.000
    28 C       0.268873     0.578133    -1.941835 C          1 UNL1 0.000
    29 C      -0.415691     0.607602    -3.156941 C          1 UNL1 0.000
    30 C      -1.797207     0.615010    -3.158564 C          1 UNL1 0.000
    31 C      -2.480946     0.593953    -1.945068 C          1 UNL1 0.000
    32 H      -6.365483     1.194778    -0.686329 H          1 UNL1 0.000
    33 H      -7.415822     3.399087    -0.786518 H          1 UNL1 0.000
    34 H      -6.256374     5.394348     0.124380 H          1 UNL1 0.000
    35 H      -4.019440     5.141370     1.169384 H          1 UNL1 0.000
    36 H      -2.991801     2.945817     1.375959 H          1 UNL1 0.000
    37 H      -2.948731    -1.941204     0.013809 H          1 UNL1 0.000
    38 H      -4.101863    -4.058402    -0.042060 H          1 UNL1 0.000
    39 H      -6.584843     0.024084     1.253041 H          1 UNL1 0.000
    40 H      -6.201807    -5.378523     0.108036 H          1 UNL1 0.000
    41 H      -8.630838    -5.471520     0.513671 H          1 UNL1 0.000
    42 H      -9.872401    -3.410380     1.117397 H          1 UNL1 0.000
    43 H      -8.684348    -1.261661     1.328227 H          1 UNL1 0.000
    44 H      -3.594940     0.400387     3.069210 H          1 UNL1 0.000
    45 H      -2.392725     0.348111     5.192725 H          1 UNL1 0.000
    46 H       0.090354     0.367349     5.214757 H          1 UNL1 0.000
    47 H       1.332501     0.431961     3.123379 H          1 UNL1 0.000
    48 H       1.356330     0.568924    -1.990071 H          1 UNL1 0.000
    49 H       0.134689     0.621266    -4.093574 H          1 UNL1 0.000
    50 H      -2.348604     0.633353    -4.094434 H          1 UNL1 0.000
    51 H      -3.568733     0.591614    -1.984957 H          1 UNL1 0.000
    52 C       1.781598     0.523467     0.568101 C          1 UNL1 0.000
    53 C       2.509637    -0.673617     0.544917 C          1 UNL1 0.000
    54 C       3.907377    -0.655464     0.557742 C          1 UNL1 0.000
    55 C       4.608815     0.558848     0.588200 C          1 UNL1 0.000
    56 C       3.887160     1.757104     0.600562 C          1 UNL1 0.000
    57 C       2.486589     1.736698     0.595577 C          1 UNL1 0.000
    58 C       6.103381     0.501878     0.607962 C          1 UNL1 0.000
    59 C       6.917440     1.765810     0.503522 C          1 UNL1 0.000
    60 O       6.665045    -0.592377     0.669086 O          1 UNL1 0.000
    61 H       1.989133    -1.629417     0.518359 H          1 UNL1 0.000
    62 H       4.447084    -1.601359     0.541741 H          1 UNL1 0.000
    63 H       4.374714     2.725761     0.619533 H          1 UNL1 0.000
    64 H       1.939286     2.678329     0.613859 H          1 UNL1 0.000
    65 H       7.858928     1.619397     1.043068 H          1 UNL1 0.000
    66 H       6.429888     2.625896     0.961898 H          1 UNL1 0.000
    67 H       7.134329     1.969981    -0.548052 H          1 UNL1 0.000
@<TRIPOS>BOND
     1      1      2   1
     2      1      3   1
     3      3      4   2
     4      4      5   1
     5      5      6   2
     6      6      7   1
     7      7      8   2
     8      8      3   1
     9      2      9   2
    10      9     10   1
    11     10     11   2
    12     11     12   1
    13     12     13   2
    14     13      2   1
    15     11     14   1
    16     14     15   2
    17     15     16   1
    18     16     17   2
    19     17     12   1
    20     18     19   2
    21     19     20   1
    22     20     21   2
    23     21     22   1
    24     22     23   2
    25     23     18   1
    26     22     24   1
    27     24     25   2
    28     25     26   1
    29     26     27   2
    30     27     23   1
    31     25     28   1
    32     28     29   2
    33     29     30   1
    34     30     31   2
    35     31     26   1
    36      1     27   1
    37      4     32   1
    38      5     33   1
    39      6     34   1
    40      7     35   1
    41      8     36   1
    42      9     37   1
    43     10     38   1
    44     13     39   1
    45     14     40   1
    46     15     41   1
    47     16     42   1
    48     17     43   1
    49     18     44   1
    50     19     45   1
    51     20     46   1
    52     21     47   1
    53     28     48   1
    54     29     49   1
    55     30     50   1
    56     31     51   1
    57     52     53   2
    58     53     54   1
    59     54     55   2
    60     55     56   1
    61     56     57   2
    62     57     52   1
    63     55     58   1
    64     58     59   1
    65     58     60   2
    66     53     61   1
    67     54     62   1
    68     56     63   1
    69     57     64   1
    70     59     65   1
    71     59     66   1
    72     59     67   1
    73     24     52   1
