# Produced with molli package
@<TRIPOS>MOLECULE
F_3_M
63 69 0 0 0
SMALL
USER_CHARGES

@<TRIPOS>ATOM
     1 N      -3.939849     0.468038     0.540881 N          1 UNL1 0.000
     2 C      -4.634692    -0.810421     0.605098 C          1 UNL1 0.000
     3 C      -4.586620     1.768376     0.435326 C          1 UNL1 0.000
     4 C      -5.864982     1.943830    -0.122390 C          1 UNL1 0.000
     5 C      -6.495034     3.195532    -0.143195 C          1 UNL1 0.000
     6 C      -5.832306     4.321506     0.330871 C          1 UNL1 0.000
     7 C      -4.534724     4.198195     0.809259 C          1 UNL1 0.000
     8 C      -3.923862     2.940106     0.861486 C          1 UNL1 0.000
     9 C      -3.956714    -2.017287     0.340904 C          1 UNL1 0.000
    10 C      -4.615162    -3.253599     0.336509 C          1 UNL1 0.000
    11 C      -5.991854    -3.328481     0.564430 C          1 UNL1 0.000
    12 C      -6.694535    -2.146508     0.870703 C          1 UNL1 0.000
    13 C      -5.994170    -0.924324     0.947269 C          1 UNL1 0.000
    14 C      -6.685583    -4.547383     0.483773 C          1 UNL1 0.000
    15 C      -8.068076    -4.592354     0.666257 C          1 UNL1 0.000
    16 C      -8.768361    -3.423993     0.949852 C          1 UNL1 0.000
    17 C      -8.084741    -2.212015     1.066553 C          1 UNL1 0.000
    18 C      -2.442141     0.343133     3.025708 C          1 UNL1 0.000
    19 C      -1.757841     0.315571     4.238697 C          1 UNL1 0.000
    20 C      -0.375990     0.342264     4.238154 C          1 UNL1 0.000
    21 C       0.309849     0.396390     3.024533 C          1 UNL1 0.000
    22 C      -0.357160     0.427225     1.771202 C          1 UNL1 0.000
    23 C      -1.771415     0.399180     1.777624 C          1 UNL1 0.000
    24 C       0.341726     0.493869     0.523336 C          1 UNL1 0.000
    25 C      -0.368535     0.527234    -0.719932 C          1 UNL1 0.000
    26 C      -1.782501     0.509052    -0.715844 C          1 UNL1 0.000
    27 C      -2.472891     0.452908     0.534540 C          1 UNL1 0.000
    28 C       0.288986     0.575459    -1.978566 C          1 UNL1 0.000
    29 C      -0.404599     0.595990    -3.188297 C          1 UNL1 0.000
    30 C      -1.786009     0.570567    -3.179604 C          1 UNL1 0.000
    31 C      -2.461256     0.529521    -1.961321 C          1 UNL1 0.000
    32 H      -6.398459     1.112239    -0.572760 H          1 UNL1 0.000
    33 H      -7.502904     3.287045    -0.540014 H          1 UNL1 0.000
    34 H      -6.317702     5.293382     0.311623 H          1 UNL1 0.000
    35 H      -3.992019     5.075758     1.150989 H          1 UNL1 0.000
    36 H      -2.913094     2.899381     1.257996 H          1 UNL1 0.000
    37 H      -2.893860    -2.026942     0.114219 H          1 UNL1 0.000
    38 H      -4.040910    -4.151806     0.121029 H          1 UNL1 0.000
    39 H      -6.546628    -0.050683     1.279777 H          1 UNL1 0.000
    40 H      -6.153765    -5.469370     0.259751 H          1 UNL1 0.000
    41 H      -8.597262    -5.537654     0.578822 H          1 UNL1 0.000
    42 H      -9.847602    -3.453309     1.075319 H          1 UNL1 0.000
    43 H      -8.652001    -1.309136     1.281951 H          1 UNL1 0.000
    44 H      -3.530316     0.328073     3.062812 H          1 UNL1 0.000
    45 H      -2.308930     0.276221     5.174178 H          1 UNL1 0.000
    46 H       0.173624     0.323250     5.175260 H          1 UNL1 0.000
    47 H       1.397047     0.418732     3.073681 H          1 UNL1 0.000
    48 H       1.375892     0.593959    -2.035511 H          1 UNL1 0.000
    49 H       0.138867     0.629383    -4.128576 H          1 UNL1 0.000
    50 H      -2.343603     0.581156    -4.111948 H          1 UNL1 0.000
    51 H      -3.549126     0.504023    -1.992845 H          1 UNL1 0.000
    52 C       1.824015     0.531767     0.513844 C          1 UNL1 0.000
    53 C       2.571290    -0.656642     0.477531 C          1 UNL1 0.000
    54 C       3.968539    -0.620094     0.444586 C          1 UNL1 0.000
    55 C       4.638290     0.607156     0.447806 C          1 UNL1 0.000
    56 C       3.905342     1.796856     0.489997 C          1 UNL1 0.000
    57 C       2.508205     1.758457     0.523554 C          1 UNL1 0.000
    58 C       6.071846     0.645501     0.402443 C          1 UNL1 0.000
    59 N       7.229770     0.676353     0.363140 N          1 UNL1 0.000
    60 H       2.061159    -1.618675     0.468777 H          1 UNL1 0.000
    61 H       4.525716    -1.554661     0.412059 H          1 UNL1 0.000
    62 H       4.412603     2.760006     0.492506 H          1 UNL1 0.000
    63 H       1.948376     2.692222     0.550147 H          1 UNL1 0.000
@<TRIPOS>BOND
     1      1      2   1
     2      1      3   1
     3      3      4   2
     4      4      5   1
     5      5      6   2
     6      6      7   1
     7      7      8   2
     8      8      3   1
     9      2      9   2
    10      9     10   1
    11     10     11   2
    12     11     12   1
    13     12     13   2
    14     13      2   1
    15     11     14   1
    16     14     15   2
    17     15     16   1
    18     16     17   2
    19     17     12   1
    20     18     19   2
    21     19     20   1
    22     20     21   2
    23     21     22   1
    24     22     23   2
    25     23     18   1
    26     22     24   1
    27     24     25   2
    28     25     26   1
    29     26     27   2
    30     27     23   1
    31     25     28   1
    32     28     29   2
    33     29     30   1
    34     30     31   2
    35     31     26   1
    36      1     27   1
    37      4     32   1
    38      5     33   1
    39      6     34   1
    40      7     35   1
    41      8     36   1
    42      9     37   1
    43     10     38   1
    44     13     39   1
    45     14     40   1
    46     15     41   1
    47     16     42   1
    48     17     43   1
    49     18     44   1
    50     19     45   1
    51     20     46   1
    52     21     47   1
    53     28     48   1
    54     29     49   1
    55     30     50   1
    56     31     51   1
    57     52     53   2
    58     53     54   1
    59     54     55   2
    60     55     56   1
    61     56     57   2
    62     57     52   1
    63     58     59   3
    64     55     58   1
    65     53     60   1
    66     54     61   1
    67     56     62   1
    68     57     63   1
    69     24     52   1
