# Produced with molli package
@<TRIPOS>MOLECULE
F_3_N
59 65 0 0 0
SMALL
USER_CHARGES

@<TRIPOS>ATOM
     1 N      -3.974849     0.511175     0.488479 N          1 UNL1 0.000
     2 C      -4.679218    -0.758388     0.454713 C          1 UNL1 0.000
     3 C      -4.628344     1.798676     0.638222 C          1 UNL1 0.000
     4 C      -5.831704     1.948380     1.351161 C          1 UNL1 0.000
     5 C      -6.454457     3.195329     1.480812 C          1 UNL1 0.000
     6 C      -5.870008     4.329896     0.927677 C          1 UNL1 0.000
     7 C      -4.659119     4.219743     0.254039 C          1 UNL1 0.000
     8 C      -4.045772     2.970324     0.114501 C          1 UNL1 0.000
     9 C      -4.032579    -1.959204     0.801466 C          1 UNL1 0.000
    10 C      -4.712568    -3.181961     0.824190 C          1 UNL1 0.000
    11 C      -6.071681    -3.248327     0.504280 C          1 UNL1 0.000
    12 C      -6.739161    -2.070509     0.109601 C          1 UNL1 0.000
    13 C      -6.025645    -0.855720     0.056511 C          1 UNL1 0.000
    14 C      -6.780785    -4.458395     0.573444 C          1 UNL1 0.000
    15 C      -8.141706    -4.503293     0.270662 C          1 UNL1 0.000
    16 C      -8.804721    -3.342786    -0.116592 C          1 UNL1 0.000
    17 C      -8.107121    -2.136192    -0.204541 C          1 UNL1 0.000
    18 C      -2.488252     0.567746     2.988311 C          1 UNL1 0.000
    19 C      -1.808663     0.581130     4.204892 C          1 UNL1 0.000
    20 C      -0.427366     0.571180     4.209602 C          1 UNL1 0.000
    21 C       0.262101     0.548256     2.997475 C          1 UNL1 0.000
    22 C      -0.402956     0.529428     1.740386 C          1 UNL1 0.000
    23 C      -1.814856     0.540515     1.739148 C          1 UNL1 0.000
    24 C       0.287838     0.491932     0.490081 C          1 UNL1 0.000
    25 C      -0.403182     0.450779    -0.760283 C          1 UNL1 0.000
    26 C      -1.815688     0.438905    -0.759793 C          1 UNL1 0.000
    27 C      -2.511002     0.497179     0.488282 C          1 UNL1 0.000
    28 C       0.261302     0.426623    -2.016891 C          1 UNL1 0.000
    29 C      -0.429686     0.388109    -3.227920 C          1 UNL1 0.000
    30 C      -1.811632     0.369067    -3.222392 C          1 UNL1 0.000
    31 C      -2.491756     0.392709    -2.006120 C          1 UNL1 0.000
    32 H      -6.294778     1.096562     1.842077 H          1 UNL1 0.000
    33 H      -7.391917     3.277863     2.024598 H          1 UNL1 0.000
    34 H      -6.349885     5.299283     1.031779 H          1 UNL1 0.000
    35 H      -4.185400     5.103218    -0.166199 H          1 UNL1 0.000
    36 H      -3.103846     2.931050    -0.425687 H          1 UNL1 0.000
    37 H      -2.983958    -1.970816     1.086138 H          1 UNL1 0.000
    38 H      -4.168104    -4.077667     1.114549 H          1 UNL1 0.000
    39 H      -6.545734     0.028979    -0.302516 H          1 UNL1 0.000
    40 H      -6.277566    -5.374411     0.874881 H          1 UNL1 0.000
    41 H      -8.682652    -5.443326     0.340636 H          1 UNL1 0.000
    42 H      -9.866404    -3.374363    -0.346922 H          1 UNL1 0.000
    43 H      -8.645288    -1.239620    -0.504174 H          1 UNL1 0.000
    44 H      -3.575670     0.566437     3.025151 H          1 UNL1 0.000
    45 H      -2.363990     0.595623     5.138605 H          1 UNL1 0.000
    46 H       0.119504     0.578338     5.148425 H          1 UNL1 0.000
    47 H       1.349361     0.537439     3.048278 H          1 UNL1 0.000
    48 H       1.348577     0.441170    -2.067996 H          1 UNL1 0.000
    49 H       0.116848     0.373168    -4.166984 H          1 UNL1 0.000
    50 H      -2.366279     0.339203    -4.156222 H          1 UNL1 0.000
    51 H      -3.579901     0.383769    -2.038701 H          1 UNL1 0.000
    52 C       1.754701     0.508778     0.491745 C          1 UNL1 0.000
    53 C       2.487813    -0.662149     0.485731 C          1 UNL1 0.000
    54 S       4.174115    -0.366457     0.498705 S          1 UNL1 0.000
    55 C       3.935282     1.327796     0.516056 C          1 UNL1 0.000
    56 C       2.599200     1.662809     0.510044 C          1 UNL1 0.000
    57 H       2.118253    -1.679018     0.474582 H          1 UNL1 0.000
    58 H       4.785314     1.996064     0.530815 H          1 UNL1 0.000
    59 H       2.240687     2.685273     0.521097 H          1 UNL1 0.000
@<TRIPOS>BOND
     1      1      2   1
     2      1      3   1
     3      3      4   2
     4      4      5   1
     5      5      6   2
     6      6      7   1
     7      7      8   2
     8      8      3   1
     9      2      9   2
    10      9     10   1
    11     10     11   2
    12     11     12   1
    13     12     13   2
    14     13      2   1
    15     11     14   1
    16     14     15   2
    17     15     16   1
    18     16     17   2
    19     17     12   1
    20     18     19   2
    21     19     20   1
    22     20     21   2
    23     21     22   1
    24     22     23   2
    25     23     18   1
    26     22     24   1
    27     24     25   2
    28     25     26   1
    29     26     27   2
    30     27     23   1
    31     25     28   1
    32     28     29   2
    33     29     30   1
    34     30     31   2
    35     31     26   1
    36      1     27   1
    37      4     32   1
    38      5     33   1
    39      6     34   1
    40      7     35   1
    41      8     36   1
    42      9     37   1
    43     10     38   1
    44     13     39   1
    45     14     40   1
    46     15     41   1
    47     16     42   1
    48     17     43   1
    49     18     44   1
    50     19     45   1
    51     20     46   1
    52     21     47   1
    53     28     48   1
    54     29     49   1
    55     30     50   1
    56     31     51   1
    57     52     53   2
    58     53     54   1
    59     54     55   1
    60     55     56   2
    61     56     52   1
    62     53     57   1
    63     55     58   1
    64     56     59   1
    65     24     52   1
