# Produced with molli package
@<TRIPOS>MOLECULE
F_3_Q
60 66 0 0 0
SMALL
USER_CHARGES

@<TRIPOS>ATOM
     1 N      -3.959761     0.538042     0.492219 N          1 UNL1 0.000
     2 C      -4.662184    -0.733671     0.483549 C          1 UNL1 0.000
     3 C      -4.611520     1.828256     0.624219 C          1 UNL1 0.000
     4 C      -5.811148     1.991122     1.339894 C          1 UNL1 0.000
     5 C      -6.431751     3.241183     1.451651 C          1 UNL1 0.000
     6 C      -5.849079     4.366095     0.877027 C          1 UNL1 0.000
     7 C      -4.641719     4.243649     0.199869 C          1 UNL1 0.000
     8 C      -4.030599     2.991373     0.078998 C          1 UNL1 0.000
     9 C      -4.008527    -1.928272     0.840008 C          1 UNL1 0.000
    10 C      -4.682271    -3.153969     0.880926 C          1 UNL1 0.000
    11 C      -6.041954    -3.231034     0.567485 C          1 UNL1 0.000
    12 C      -6.717846    -2.060558     0.164968 C          1 UNL1 0.000
    13 C      -6.011302    -0.841632     0.097328 C          1 UNL1 0.000
    14 C      -6.742369    -4.445448     0.648625 C          1 UNL1 0.000
    15 C      -8.103218    -4.502701     0.348234 C          1 UNL1 0.000
    16 C      -8.774984    -3.349936    -0.046911 C          1 UNL1 0.000
    17 C      -8.086226    -2.138811    -0.145025 C          1 UNL1 0.000
    18 C      -2.434924     0.597387     2.966512 C          1 UNL1 0.000
    19 C      -1.736868     0.598822     4.172181 C          1 UNL1 0.000
    20 C      -0.355929     0.564645     4.154872 C          1 UNL1 0.000
    21 C       0.314398     0.536361     2.932024 C          1 UNL1 0.000
    22 C      -0.368233     0.540343     1.685518 C          1 UNL1 0.000
    23 C      -1.781172     0.563120     1.707540 C          1 UNL1 0.000
    24 C       0.315573     0.515050     0.428748 C          1 UNL1 0.000
    25 C      -0.406340     0.471194    -0.806284 C          1 UNL1 0.000
    26 C      -1.819996     0.464468    -0.786264 C          1 UNL1 0.000
    27 C      -2.496333     0.523785     0.469837 C          1 UNL1 0.000
    28 C       0.237551     0.440513    -2.072148 C          1 UNL1 0.000
    29 C      -0.471338     0.414110    -3.273346 C          1 UNL1 0.000
    30 C      -1.853197     0.405650    -3.248392 C          1 UNL1 0.000
    31 C      -2.514531     0.424784    -2.022346 C          1 UNL1 0.000
    32 H      -6.273008     1.148097     1.846794 H          1 UNL1 0.000
    33 H      -7.366599     3.333989     1.998270 H          1 UNL1 0.000
    34 H      -6.327598     5.337566     0.966872 H          1 UNL1 0.000
    35 H      -4.169180     5.119166    -0.237996 H          1 UNL1 0.000
    36 H      -3.091642     2.943525    -0.465256 H          1 UNL1 0.000
    37 H      -2.957382    -1.933804     1.116158 H          1 UNL1 0.000
    38 H      -4.130809    -4.043506     1.177222 H          1 UNL1 0.000
    39 H      -6.538301     0.036275    -0.267906 H          1 UNL1 0.000
    40 H      -6.231663    -5.355456     0.955775 H          1 UNL1 0.000
    41 H      -8.636885    -5.446319     0.425458 H          1 UNL1 0.000
    42 H      -9.836524    -3.391278    -0.276293 H          1 UNL1 0.000
    43 H      -8.631310    -1.248780    -0.451434 H          1 UNL1 0.000
    44 H      -3.521883     0.608941     3.019734 H          1 UNL1 0.000
    45 H      -2.277096     0.616512     5.114574 H          1 UNL1 0.000
    46 H       0.205071     0.552617     5.085293 H          1 UNL1 0.000
    47 H       1.401872     0.490444     2.969456 H          1 UNL1 0.000
    48 H       1.324347     0.428142    -2.141525 H          1 UNL1 0.000
    49 H       0.061151     0.394393    -4.220310 H          1 UNL1 0.000
    50 H      -2.421503     0.382210    -4.174039 H          1 UNL1 0.000
    51 H      -3.603272     0.418135    -2.038675 H          1 UNL1 0.000
    52 C       1.787939     0.561394     0.406878 C          1 UNL1 0.000
    53 N       2.434797    -0.632298     0.367568 N          1 UNL1 0.000
    54 C       3.785989    -0.569819     0.355345 C          1 UNL1 0.000
    55 C       4.476074     0.630154     0.381318 C          1 UNL1 0.000
    56 N       3.847926     1.826163     0.419790 N          1 UNL1 0.000
    57 C       2.493206     1.764023     0.431696 C          1 UNL1 0.000
    58 H       4.304229    -1.521438     0.324208 H          1 UNL1 0.000
    59 H       5.559622     0.661108     0.372076 H          1 UNL1 0.000
    60 H       1.980414     2.719750     0.465153 H          1 UNL1 0.000
@<TRIPOS>BOND
     1      1      2   1
     2      1      3   1
     3      3      4   2
     4      4      5   1
     5      5      6   2
     6      6      7   1
     7      7      8   2
     8      8      3   1
     9      2      9   2
    10      9     10   1
    11     10     11   2
    12     11     12   1
    13     12     13   2
    14     13      2   1
    15     11     14   1
    16     14     15   2
    17     15     16   1
    18     16     17   2
    19     17     12   1
    20     18     19   2
    21     19     20   1
    22     20     21   2
    23     21     22   1
    24     22     23   2
    25     23     18   1
    26     22     24   1
    27     24     25   2
    28     25     26   1
    29     26     27   2
    30     27     23   1
    31     25     28   1
    32     28     29   2
    33     29     30   1
    34     30     31   2
    35     31     26   1
    36      1     27   1
    37      4     32   1
    38      5     33   1
    39      6     34   1
    40      7     35   1
    41      8     36   1
    42      9     37   1
    43     10     38   1
    44     13     39   1
    45     14     40   1
    46     15     41   1
    47     16     42   1
    48     17     43   1
    49     18     44   1
    50     19     45   1
    51     20     46   1
    52     21     47   1
    53     28     48   1
    54     29     49   1
    55     30     50   1
    56     31     51   1
    57     52     53   2
    58     53     54   1
    59     54     55   2
    60     55     56   1
    61     56     57   2
    62     57     52   1
    63     54     58   1
    64     55     59   1
    65     57     60   1
    66     24     52   1
