# Produced with molli package
@<TRIPOS>MOLECULE
F_3_R
63 69 0 0 0
SMALL
USER_CHARGES

@<TRIPOS>ATOM
     1 N      -3.883181     0.433483     0.549802 N          1 UNL1 0.000
     2 C      -4.595772    -0.836004     0.533853 C          1 UNL1 0.000
     3 C      -4.512211     1.743679     0.632277 C          1 UNL1 0.000
     4 C      -5.775762     1.946816     1.213197 C          1 UNL1 0.000
     5 C      -6.386612     3.208359     1.224566 C          1 UNL1 0.000
     6 C      -5.722291     4.314711     0.707250 C          1 UNL1 0.000
     7 C      -4.441149     4.163047     0.194936 C          1 UNL1 0.000
     8 C      -3.847053     2.896752     0.160506 C          1 UNL1 0.000
     9 C      -3.939857    -2.040056     0.858833 C          1 UNL1 0.000
    10 C      -4.618854    -3.263206     0.916653 C          1 UNL1 0.000
    11 C      -5.991739    -3.328143     0.666685 C          1 UNL1 0.000
    12 C      -6.670912    -2.152140     0.289911 C          1 UNL1 0.000
    13 C      -5.952968    -0.942178     0.179528 C          1 UNL1 0.000
    14 C      -6.702977    -4.533014     0.790379 C          1 UNL1 0.000
    15 C      -8.079827    -4.571577     0.570062 C          1 UNL1 0.000
    16 C      -8.756367    -3.411101     0.207256 C          1 UNL1 0.000
    17 C      -8.055480    -2.212493     0.056219 C          1 UNL1 0.000
    18 C      -2.367721     0.402735     3.031194 C          1 UNL1 0.000
    19 C      -1.673301     0.380619     4.239051 C          1 UNL1 0.000
    20 C      -0.291568     0.372556     4.226268 C          1 UNL1 0.000
    21 C       0.383110     0.392281     3.005755 C          1 UNL1 0.000
    22 C      -0.294898     0.413448     1.757338 C          1 UNL1 0.000
    23 C      -1.708296     0.411083     1.775029 C          1 UNL1 0.000
    24 C       0.393532     0.438542     0.502709 C          1 UNL1 0.000
    25 C      -0.323528     0.403961    -0.736148 C          1 UNL1 0.000
    26 C      -1.736855     0.374320    -0.720845 C          1 UNL1 0.000
    27 C      -2.417896     0.398945     0.534184 C          1 UNL1 0.000
    28 C       0.322947     0.407499    -2.001160 C          1 UNL1 0.000
    29 C      -0.382924     0.400331    -3.204574 C          1 UNL1 0.000
    30 C      -1.764546     0.374382    -3.183393 C          1 UNL1 0.000
    31 C      -2.428197     0.354376    -1.959044 C          1 UNL1 0.000
    32 H      -6.309852     1.129898     1.689356 H          1 UNL1 0.000
    33 H      -7.381263     3.323480     1.647612 H          1 UNL1 0.000
    34 H      -6.193731     5.293554     0.717859 H          1 UNL1 0.000
    35 H      -3.898115     5.024069    -0.186096 H          1 UNL1 0.000
    36 H      -2.848078     2.835440    -0.261225 H          1 UNL1 0.000
    37 H      -2.879583    -2.057811     1.097144 H          1 UNL1 0.000
    38 H      -4.062037    -4.158036     1.185824 H          1 UNL1 0.000
    39 H      -6.486328    -0.071288    -0.190511 H          1 UNL1 0.000
    40 H      -6.188966    -5.448571     1.074649 H          1 UNL1 0.000
    41 H      -8.622635    -5.505847     0.687322 H          1 UNL1 0.000
    42 H      -9.830956    -3.436159     0.046294 H          1 UNL1 0.000
    43 H      -8.604868    -1.315703    -0.221486 H          1 UNL1 0.000
    44 H      -3.455408     0.397350     3.078696 H          1 UNL1 0.000
    45 H      -2.216289     0.360755     5.179843 H          1 UNL1 0.000
    46 H       0.266576     0.344101     5.158073 H          1 UNL1 0.000
    47 H       1.470921     0.368656     3.044407 H          1 UNL1 0.000
    48 H       1.409428     0.407785    -2.068340 H          1 UNL1 0.000
    49 H       0.150925     0.409253    -4.150923 H          1 UNL1 0.000
    50 H      -2.331219     0.366817    -4.110330 H          1 UNL1 0.000
    51 H      -3.516852     0.333506    -1.978034 H          1 UNL1 0.000
    52 C       1.866242     0.545292     0.488431 C          1 UNL1 0.000
    53 N       2.551774    -0.624308     0.600548 N          1 UNL1 0.000
    54 C       3.904402    -0.559315     0.605198 C          1 UNL1 0.000
    55 C       4.589181     0.634860     0.488629 C          1 UNL1 0.000
    56 C       3.895993     1.835290     0.368375 C          1 UNL1 0.000
    57 C       2.503691     1.786535     0.376858 C          1 UNL1 0.000
    58 N       6.027047     0.619848     0.490778 N          1 UNL1 0.000
    59 O       6.582217     0.188602     1.511019 O          1 UNL1 0.000
    60 O       6.595406     1.041022    -0.521739 O          1 UNL1 0.000
    61 H       4.413135    -1.514845     0.700417 H          1 UNL1 0.000
    62 H       4.415490     2.785059     0.278733 H          1 UNL1 0.000
    63 H       1.919231     2.699239     0.297427 H          1 UNL1 0.000
@<TRIPOS>BOND
     1      1      2   1
     2      1      3   1
     3      3      4   2
     4      4      5   1
     5      5      6   2
     6      6      7   1
     7      7      8   2
     8      8      3   1
     9      2      9   2
    10      9     10   1
    11     10     11   2
    12     11     12   1
    13     12     13   2
    14     13      2   1
    15     11     14   1
    16     14     15   2
    17     15     16   1
    18     16     17   2
    19     17     12   1
    20     18     19   2
    21     19     20   1
    22     20     21   2
    23     21     22   1
    24     22     23   2
    25     23     18   1
    26     22     24   1
    27     24     25   2
    28     25     26   1
    29     26     27   2
    30     27     23   1
    31     25     28   1
    32     28     29   2
    33     29     30   1
    34     30     31   2
    35     31     26   1
    36      1     27   1
    37      4     32   1
    38      5     33   1
    39      6     34   1
    40      7     35   1
    41      8     36   1
    42      9     37   1
    43     10     38   1
    44     13     39   1
    45     14     40   1
    46     15     41   1
    47     16     42   1
    48     17     43   1
    49     18     44   1
    50     19     45   1
    51     20     46   1
    52     21     47   1
    53     28     48   1
    54     29     49   1
    55     30     50   1
    56     31     51   1
    57     52     53   2
    58     53     54   1
    59     54     55   2
    60     55     56   1
    61     56     57   2
    62     57     52   1
    63     58     59   2
    64     58     60   1
    65     55     58   1
    66     54     61   1
    67     56     62   1
    68     57     63   1
    69     24     52   1
