# Produced with molli package
@<TRIPOS>MOLECULE
F_3_O
61 67 0 0 0
SMALL
USER_CHARGES

@<TRIPOS>ATOM
     1 N      -3.901173     0.494932     0.530569 N          1 UNL1 0.000
     2 C      -4.604499    -0.778247     0.518626 C          1 UNL1 0.000
     3 C      -4.544646     1.795475     0.460526 C          1 UNL1 0.000
     4 C      -5.769800     1.996631    -0.199082 C          1 UNL1 0.000
     5 C      -6.388798     3.252922    -0.228902 C          1 UNL1 0.000
     6 C      -5.774700     4.351157     0.363719 C          1 UNL1 0.000
     7 C      -4.536358     4.196572     0.973864 C          1 UNL1 0.000
     8 C      -3.930295     2.936503     1.018076 C          1 UNL1 0.000
     9 C      -3.938364    -1.971333     0.175825 C          1 UNL1 0.000
    10 C      -4.605231    -3.199799     0.109838 C          1 UNL1 0.000
    11 C      -5.974346    -3.281492     0.373986 C          1 UNL1 0.000
    12 C      -6.665258    -2.115108     0.761308 C          1 UNL1 0.000
    13 C      -5.962170    -0.896261     0.868406 C          1 UNL1 0.000
    14 C      -6.669537    -4.495871     0.256299 C          1 UNL1 0.000
    15 C      -8.041759    -4.555403     0.498380 C          1 UNL1 0.000
    16 C      -8.729795    -3.405646     0.873736 C          1 UNL1 0.000
    17 C      -8.045327    -2.196146     1.013841 C          1 UNL1 0.000
    18 C      -2.410615     0.316325     3.016040 C          1 UNL1 0.000
    19 C      -1.726892     0.258620     4.228629 C          1 UNL1 0.000
    20 C      -0.344957     0.253574     4.227923 C          1 UNL1 0.000
    21 C       0.341953     0.308488     3.014838 C          1 UNL1 0.000
    22 C      -0.324977     0.380644     1.762710 C          1 UNL1 0.000
    23 C      -1.737788     0.382376     1.768724 C          1 UNL1 0.000
    24 C       0.375732     0.454168     0.516430 C          1 UNL1 0.000
    25 C      -0.331581     0.501235    -0.726964 C          1 UNL1 0.000
    26 C      -1.743889     0.528275    -0.723556 C          1 UNL1 0.000
    27 C      -2.436668     0.473303     0.526477 C          1 UNL1 0.000
    28 C       0.329312     0.514903    -1.984812 C          1 UNL1 0.000
    29 C      -0.362517     0.558845    -3.195326 C          1 UNL1 0.000
    30 C      -1.743518     0.595899    -3.187780 C          1 UNL1 0.000
    31 C      -2.420753     0.582064    -1.969929 C          1 UNL1 0.000
    32 H      -6.258194     1.180779    -0.724643 H          1 UNL1 0.000
    33 H      -7.348269     3.371373    -0.725656 H          1 UNL1 0.000
    34 H      -6.252150     5.326892     0.338147 H          1 UNL1 0.000
    35 H      -4.035851     5.051715     1.420725 H          1 UNL1 0.000
    36 H      -2.966353     2.865721     1.514035 H          1 UNL1 0.000
    37 H      -2.878811    -1.975324    -0.067041 H          1 UNL1 0.000
    38 H      -4.040501    -4.086012    -0.170876 H          1 UNL1 0.000
    39 H      -6.503570    -0.028348     1.234699 H          1 UNL1 0.000
    40 H      -6.145819    -5.403092    -0.036829 H          1 UNL1 0.000
    41 H      -8.571620    -5.498027     0.389677 H          1 UNL1 0.000
    42 H      -9.800649    -3.447891     1.054361 H          1 UNL1 0.000
    43 H      -8.603224    -1.308387     1.303210 H          1 UNL1 0.000
    44 H      -3.498667     0.317079     3.051649 H          1 UNL1 0.000
    45 H      -2.278558     0.213812     5.163442 H          1 UNL1 0.000
    46 H       0.205207     0.200212     5.163274 H          1 UNL1 0.000
    47 H       1.429554     0.281939     3.060069 H          1 UNL1 0.000
    48 H       1.415927     0.467225    -2.037542 H          1 UNL1 0.000
    49 H       0.182661     0.555301    -4.135062 H          1 UNL1 0.000
    50 H      -2.300119     0.624717    -4.120288 H          1 UNL1 0.000
    51 H      -3.508267     0.597348    -2.002601 H          1 UNL1 0.000
    52 C       1.850733     0.515053     0.514020 C          1 UNL1 0.000
    53 N       2.496625    -0.674807     0.439772 N          1 UNL1 0.000
    54 C       3.846857    -0.646557     0.432863 C          1 UNL1 0.000
    55 C       4.594728     0.517249     0.497488 C          1 UNL1 0.000
    56 C       3.919389     1.729227     0.573272 C          1 UNL1 0.000
    57 C       2.527665     1.732894     0.581149 C          1 UNL1 0.000
    58 H       4.327875    -1.618637     0.371524 H          1 UNL1 0.000
    59 H       5.678218     0.479246     0.488582 H          1 UNL1 0.000
    60 H       4.469937     2.664091     0.625262 H          1 UNL1 0.000
    61 H       1.978344     2.667340     0.638279 H          1 UNL1 0.000
@<TRIPOS>BOND
     1      1      2   1
     2      1      3   1
     3      3      4   2
     4      4      5   1
     5      5      6   2
     6      6      7   1
     7      7      8   2
     8      8      3   1
     9      2      9   2
    10      9     10   1
    11     10     11   2
    12     11     12   1
    13     12     13   2
    14     13      2   1
    15     11     14   1
    16     14     15   2
    17     15     16   1
    18     16     17   2
    19     17     12   1
    20     18     19   2
    21     19     20   1
    22     20     21   2
    23     21     22   1
    24     22     23   2
    25     23     18   1
    26     22     24   1
    27     24     25   2
    28     25     26   1
    29     26     27   2
    30     27     23   1
    31     25     28   1
    32     28     29   2
    33     29     30   1
    34     30     31   2
    35     31     26   1
    36      1     27   1
    37      4     32   1
    38      5     33   1
    39      6     34   1
    40      7     35   1
    41      8     36   1
    42      9     37   1
    43     10     38   1
    44     13     39   1
    45     14     40   1
    46     15     41   1
    47     16     42   1
    48     17     43   1
    49     18     44   1
    50     19     45   1
    51     20     46   1
    52     21     47   1
    53     28     48   1
    54     29     49   1
    55     30     50   1
    56     31     51   1
    57     52     53   2
    58     53     54   1
    59     54     55   2
    60     55     56   1
    61     56     57   2
    62     57     52   1
    63     54     58   1
    64     55     59   1
    65     56     60   1
    66     57     61   1
    67     24     52   1
