# Produced with molli package
@<TRIPOS>MOLECULE
F_4_M
55 59 0 0 0
SMALL
USER_CHARGES

@<TRIPOS>ATOM
     1 N      -3.107860     0.503357    -0.771690 N          1 UNL1 0.000
     2 C      -3.819012    -0.767022    -0.722632 C          1 UNL1 0.000
     3 C      -3.724395     1.813589    -0.913268 C          1 UNL1 0.000
     4 C      -4.984055     2.017186    -1.500481 C          1 UNL1 0.000
     5 C      -5.587529     3.282569    -1.533932 C          1 UNL1 0.000
     6 C      -4.910407     4.396391    -1.051620 C          1 UNL1 0.000
     7 C      -3.624108     4.247503    -0.552151 C          1 UNL1 0.000
     8 C      -3.044863     2.975379    -0.480544 C          1 UNL1 0.000
     9 C      -3.134056    -1.987068    -0.905765 C          1 UNL1 0.000
    10 C      -3.798661    -3.220268    -0.936592 C          1 UNL1 0.000
    11 C      -5.189717    -3.281162    -0.828233 C          1 UNL1 0.000
    12 C      -5.904742    -2.087898    -0.607620 C          1 UNL1 0.000
    13 C      -5.201543    -0.869183    -0.487581 C          1 UNL1 0.000
    14 C      -5.884257    -4.496597    -0.948026 C          1 UNL1 0.000
    15 C      -7.277989    -4.527055    -0.895745 C          1 UNL1 0.000
    16 C      -7.989959    -3.347338    -0.703260 C          1 UNL1 0.000
    17 C      -7.308019    -2.139103    -0.542922 C          1 UNL1 0.000
    18 C      -1.664925     0.466725    -0.755873 C          1 UNL1 0.000
    19 C      -0.949139     0.505656    -1.960606 C          1 UNL1 0.000
    20 C       0.441339     0.475873    -1.933441 C          1 UNL1 0.000
    21 C       1.131940     0.399861    -0.725601 C          1 UNL1 0.000
    22 C       0.434901     0.378935     0.491658 C          1 UNL1 0.000
    23 C      -0.968452     0.398336     0.464412 C          1 UNL1 0.000
    24 O       1.152384     0.445663    -3.099572 O          1 UNL1 0.000
    25 C       1.295985     1.754855    -3.650942 C          1 UNL1 0.000
    26 H      -5.525743     1.199603    -1.965639 H          1 UNL1 0.000
    27 H      -6.587020     3.393639    -1.946965 H          1 UNL1 0.000
    28 H      -5.375921     5.377724    -1.080901 H          1 UNL1 0.000
    29 H      -3.068087     5.114928    -0.206259 H          1 UNL1 0.000
    30 H      -2.043822     2.913754    -0.063050 H          1 UNL1 0.000
    31 H      -2.056576    -2.011866    -1.046880 H          1 UNL1 0.000
    32 H      -3.215413    -4.126363    -1.084290 H          1 UNL1 0.000
    33 H      -5.774895     0.009380    -0.210261 H          1 UNL1 0.000
    34 H      -5.342802    -5.427024    -1.103753 H          1 UNL1 0.000
    35 H      -7.805959    -5.469552    -1.015165 H          1 UNL1 0.000
    36 H      -9.076557    -3.364848    -0.683435 H          1 UNL1 0.000
    37 H      -7.884390    -1.227439    -0.401551 H          1 UNL1 0.000
    38 H      -1.478959     0.537551    -2.908049 H          1 UNL1 0.000
    39 H       2.219013     0.366952    -0.736100 H          1 UNL1 0.000
    40 H      -1.533851     0.372617     1.394132 H          1 UNL1 0.000
    41 H       2.355458     2.027460    -3.621138 H          1 UNL1 0.000
    42 H       0.717532     2.527382    -3.129979 H          1 UNL1 0.000
    43 H       0.976741     1.723487    -4.696825 H          1 UNL1 0.000
    44 C       1.165240     0.352582     1.760763 C          1 UNL1 0.000
    45 C       1.317960     1.522271     2.521628 C          1 UNL1 0.000
    46 C       2.044074     1.508933     3.716738 C          1 UNL1 0.000
    47 C       2.624538     0.321039     4.170113 C          1 UNL1 0.000
    48 C       2.472793    -0.851566     3.424402 C          1 UNL1 0.000
    49 C       1.749461    -0.833720     2.227698 C          1 UNL1 0.000
    50 C       3.376398     0.306528     5.390222 C          1 UNL1 0.000
    51 N       3.988132     0.296178     6.377203 N          1 UNL1 0.000
    52 H       0.879886     2.457623     2.176942 H          1 UNL1 0.000
    53 H       2.155891     2.431203     4.283968 H          1 UNL1 0.000
    54 H       2.917595    -1.784971     3.764250 H          1 UNL1 0.000
    55 H       1.643257    -1.754038     1.655576 H          1 UNL1 0.000
@<TRIPOS>BOND
     1      1      2   1
     2      1      3   1
     3      3      4   2
     4      4      5   1
     5      5      6   2
     6      6      7   1
     7      7      8   2
     8      8      3   1
     9      2      9   2
    10      9     10   1
    11     10     11   2
    12     11     12   1
    13     12     13   2
    14     13      2   1
    15     11     14   1
    16     14     15   2
    17     15     16   1
    18     16     17   2
    19     17     12   1
    20     18     19   2
    21     19     20   1
    22     20     21   2
    23     21     22   1
    24     22     23   2
    25     23     18   1
    26     24     25   1
    27     20     24   1
    28      1     18   1
    29      4     26   1
    30      5     27   1
    31      6     28   1
    32      7     29   1
    33      8     30   1
    34      9     31   1
    35     10     32   1
    36     13     33   1
    37     14     34   1
    38     15     35   1
    39     16     36   1
    40     17     37   1
    41     19     38   1
    42     21     39   1
    43     23     40   1
    44     25     41   1
    45     25     42   1
    46     25     43   1
    47     44     45   2
    48     45     46   1
    49     46     47   2
    50     47     48   1
    51     48     49   2
    52     49     44   1
    53     50     51   3
    54     47     50   1
    55     45     52   1
    56     46     53   1
    57     48     54   1
    58     49     55   1
    59     22     44   1
