# Produced with molli package
@<TRIPOS>MOLECULE
F_4_Q
52 56 0 0 0
SMALL
USER_CHARGES

@<TRIPOS>ATOM
     1 N      -3.158977     0.511128    -0.730512 N          1 UNL1 0.000
     2 C      -3.871587    -0.754545    -0.705734 C          1 UNL1 0.000
     3 C      -3.786327     1.807703    -0.904362 C          1 UNL1 0.000
     4 C      -4.993524     1.980963    -1.602775 C          1 UNL1 0.000
     5 C      -5.586368     3.243173    -1.737874 C          1 UNL1 0.000
     6 C      -4.961199     4.371557    -1.217101 C          1 UNL1 0.000
     7 C      -3.741049     4.239902    -0.565948 C          1 UNL1 0.000
     8 C      -3.164801     2.974918    -0.410052 C          1 UNL1 0.000
     9 C      -3.212596    -1.964928    -0.998170 C          1 UNL1 0.000
    10 C      -3.891151    -3.188454    -1.042537 C          1 UNL1 0.000
    11 C      -5.268016    -3.245420    -0.810184 C          1 UNL1 0.000
    12 C      -5.952544    -2.062207    -0.472034 C          1 UNL1 0.000
    13 C      -5.237566    -0.847595    -0.379664 C          1 UNL1 0.000
    14 C      -5.974434    -4.455228    -0.917121 C          1 UNL1 0.000
    15 C      -7.354114    -4.490743    -0.714164 C          1 UNL1 0.000
    16 C      -8.036826    -3.323761    -0.387839 C          1 UNL1 0.000
    17 C      -7.341016    -2.119106    -0.256617 C          1 UNL1 0.000
    18 C      -1.719146     0.481635    -0.760225 C          1 UNL1 0.000
    19 C      -1.045335     0.502475    -1.988093 C          1 UNL1 0.000
    20 C       0.344259     0.462252    -2.012074 C          1 UNL1 0.000
    21 C       1.077755     0.389968    -0.829565 C          1 UNL1 0.000
    22 C       0.423383     0.391110     0.413520 C          1 UNL1 0.000
    23 C      -0.981282     0.426682     0.433389 C          1 UNL1 0.000
    24 O       1.000908     0.412452    -3.209948 O          1 UNL1 0.000
    25 C       1.161775     1.724550    -3.750411 C          1 UNL1 0.000
    26 H      -5.487973     1.138345    -2.077652 H          1 UNL1 0.000
    27 H      -6.533855     3.341887    -2.261367 H          1 UNL1 0.000
    28 H      -5.417245     5.351576    -1.328146 H          1 UNL1 0.000
    29 H      -3.232653     5.116524    -0.172827 H          1 UNL1 0.000
    30 H      -2.216778     2.918371     0.119162 H          1 UNL1 0.000
    31 H      -2.149503    -1.986805    -1.222980 H          1 UNL1 0.000
    32 H      -3.332739    -4.088501    -1.286651 H          1 UNL1 0.000
    33 H      -5.775696     0.037776    -0.053408 H          1 UNL1 0.000
    34 H      -5.455533    -5.375479    -1.173413 H          1 UNL1 0.000
    35 H      -7.893289    -5.429018    -0.816570 H          1 UNL1 0.000
    36 H      -9.113421    -3.347459    -0.239319 H          1 UNL1 0.000
    37 H      -7.895207    -1.217833    -0.006991 H          1 UNL1 0.000
    38 H      -1.608705     0.529317    -2.916367 H          1 UNL1 0.000
    39 H       2.163639     0.357271    -0.881180 H          1 UNL1 0.000
    40 H      -1.510793     0.430495     1.384890 H          1 UNL1 0.000
    41 H       2.096864     2.157618    -3.381612 H          1 UNL1 0.000
    42 H       0.325049     2.394492    -3.520159 H          1 UNL1 0.000
    43 H       1.230068     1.632420    -4.838531 H          1 UNL1 0.000
    44 C       1.185036     0.384992     1.660635 C          1 UNL1 0.000
    45 N       1.124095     1.521384     2.402283 N          1 UNL1 0.000
    46 C       1.862111     1.525953     3.536341 C          1 UNL1 0.000
    47 C       2.626040     0.441424     3.931884 C          1 UNL1 0.000
    48 N       2.689023    -0.700099     3.211582 N          1 UNL1 0.000
    49 C       1.954428    -0.701296     2.070861 C          1 UNL1 0.000
    50 H       1.825688     2.437197     4.122390 H          1 UNL1 0.000
    51 H       3.212089     0.463202     4.843528 H          1 UNL1 0.000
    52 H       1.999413    -1.615684     1.488706 H          1 UNL1 0.000
@<TRIPOS>BOND
     1      1      2   1
     2      1      3   1
     3      3      4   2
     4      4      5   1
     5      5      6   2
     6      6      7   1
     7      7      8   2
     8      8      3   1
     9      2      9   2
    10      9     10   1
    11     10     11   2
    12     11     12   1
    13     12     13   2
    14     13      2   1
    15     11     14   1
    16     14     15   2
    17     15     16   1
    18     16     17   2
    19     17     12   1
    20     18     19   2
    21     19     20   1
    22     20     21   2
    23     21     22   1
    24     22     23   2
    25     23     18   1
    26     24     25   1
    27     20     24   1
    28      1     18   1
    29      4     26   1
    30      5     27   1
    31      6     28   1
    32      7     29   1
    33      8     30   1
    34      9     31   1
    35     10     32   1
    36     13     33   1
    37     14     34   1
    38     15     35   1
    39     16     36   1
    40     17     37   1
    41     19     38   1
    42     21     39   1
    43     23     40   1
    44     25     41   1
    45     25     42   1
    46     25     43   1
    47     44     45   2
    48     45     46   1
    49     46     47   2
    50     47     48   1
    51     48     49   2
    52     49     44   1
    53     46     50   1
    54     47     51   1
    55     49     52   1
    56     22     44   1
