# Produced with molli package
@<TRIPOS>MOLECULE
F_4_L
58 63 0 0 0
SMALL
USER_CHARGES

@<TRIPOS>ATOM
     1 N      -3.248860     0.517754    -0.631753 N          1 UNL1 0.000
     2 C      -3.967220    -0.742145    -0.661386 C          1 UNL1 0.000
     3 C      -3.885718     1.816184    -0.548686 C          1 UNL1 0.000
     4 C      -5.107355     2.011131     0.118763 C          1 UNL1 0.000
     5 C      -5.728591     3.265625     0.154013 C          1 UNL1 0.000
     6 C      -5.121276     4.365544    -0.443600 C          1 UNL1 0.000
     7 C      -3.888236     4.214583    -1.066545 C          1 UNL1 0.000
     8 C      -3.279278     2.956419    -1.116111 C          1 UNL1 0.000
     9 C      -3.338550    -1.943054    -0.281932 C          1 UNL1 0.000
    10 C      -4.025169    -3.162691    -0.264137 C          1 UNL1 0.000
    11 C      -5.377780    -3.223288    -0.614371 C          1 UNL1 0.000
    12 C      -6.028879    -2.045867    -1.031778 C          1 UNL1 0.000
    13 C      -5.306563    -0.835080    -1.084199 C          1 UNL1 0.000
    14 C      -6.094751    -4.429854    -0.551366 C          1 UNL1 0.000
    15 C      -7.450210    -4.468235    -0.880072 C          1 UNL1 0.000
    16 C      -8.098479    -3.306711    -1.286893 C          1 UNL1 0.000
    17 C      -7.391810    -2.104796    -1.371314 C          1 UNL1 0.000
    18 C      -1.810731     0.483240    -0.668289 C          1 UNL1 0.000
    19 C      -1.142473     0.349954    -1.890294 C          1 UNL1 0.000
    20 C       0.247101     0.365497    -1.917023 C          1 UNL1 0.000
    21 C       0.986247     0.414052    -0.735325 C          1 UNL1 0.000
    22 C       0.334996     0.512465     0.503769 C          1 UNL1 0.000
    23 C      -1.067437     0.579984     0.521640 C          1 UNL1 0.000
    24 O       0.873769     0.293492    -3.130872 O          1 UNL1 0.000
    25 C       1.337795     1.589270    -3.516344 C          1 UNL1 0.000
    26 H      -5.591869     1.187710     0.636894 H          1 UNL1 0.000
    27 H      -6.685963     3.380535     0.655592 H          1 UNL1 0.000
    28 H      -5.602411     5.339448    -0.415366 H          1 UNL1 0.000
    29 H      -3.397158     5.070838    -1.521468 H          1 UNL1 0.000
    30 H      -2.323324     2.881229    -1.626855 H          1 UNL1 0.000
    31 H      -2.296925    -1.955571     0.028716 H          1 UNL1 0.000
    32 H      -3.492813    -4.058496     0.045565 H          1 UNL1 0.000
    33 H      -5.813101     0.047056    -1.465961 H          1 UNL1 0.000
    34 H      -5.603063    -5.346372    -0.234745 H          1 UNL1 0.000
    35 H      -7.997979    -5.404710    -0.814059 H          1 UNL1 0.000
    36 H      -9.156175    -3.332828    -1.536028 H          1 UNL1 0.000
    37 H      -7.918041    -1.207454    -1.687422 H          1 UNL1 0.000
    38 H      -1.706034     0.271665    -2.815241 H          1 UNL1 0.000
    39 H       2.071901     0.370729    -0.778474 H          1 UNL1 0.000
    40 H      -1.595704     0.664913     1.469655 H          1 UNL1 0.000
    41 H       2.308752     1.795037    -3.054619 H          1 UNL1 0.000
    42 H       0.623486     2.382631    -3.262651 H          1 UNL1 0.000
    43 H       1.465779     1.590808    -4.602880 H          1 UNL1 0.000
    44 C       1.104045     0.514326     1.752693 C          1 UNL1 0.000
    45 C       1.295781     1.697695     2.478154 C          1 UNL1 0.000
    46 C       2.038903     1.723381     3.665782 C          1 UNL1 0.000
    47 C       2.584455     0.516139     4.114466 C          1 UNL1 0.000
    48 C       2.411811    -0.686096     3.430653 C          1 UNL1 0.000
    49 C       1.664420    -0.684134     2.236151 C          1 UNL1 0.000
    50 N       3.348363     0.242191     5.227016 N          1 UNL1 0.000
    51 C       3.658135    -1.091573     5.272377 C          1 UNL1 0.000
    52 C       3.089258    -1.692765     4.172883 C          1 UNL1 0.000
    53 H       0.865264     2.628584     2.112327 H          1 UNL1 0.000
    54 H       2.182286     2.650286     4.211090 H          1 UNL1 0.000
    55 H       1.520043    -1.614612     1.692998 H          1 UNL1 0.000
    56 H       3.635361     0.930692     5.908677 H          1 UNL1 0.000
    57 H       4.253871    -1.496139     6.079526 H          1 UNL1 0.000
    58 H       3.152949    -2.744169     3.925021 H          1 UNL1 0.000
@<TRIPOS>BOND
     1      1      2   1
     2      1      3   1
     3      3      4   2
     4      4      5   1
     5      5      6   2
     6      6      7   1
     7      7      8   2
     8      8      3   1
     9      2      9   2
    10      9     10   1
    11     10     11   2
    12     11     12   1
    13     12     13   2
    14     13      2   1
    15     11     14   1
    16     14     15   2
    17     15     16   1
    18     16     17   2
    19     17     12   1
    20     18     19   2
    21     19     20   1
    22     20     21   2
    23     21     22   1
    24     22     23   2
    25     23     18   1
    26     24     25   1
    27     20     24   1
    28      1     18   1
    29      4     26   1
    30      5     27   1
    31      6     28   1
    32      7     29   1
    33      8     30   1
    34      9     31   1
    35     10     32   1
    36     13     33   1
    37     14     34   1
    38     15     35   1
    39     16     36   1
    40     17     37   1
    41     19     38   1
    42     21     39   1
    43     23     40   1
    44     25     41   1
    45     25     42   1
    46     25     43   1
    47     44     45   2
    48     45     46   1
    49     46     47   2
    50     47     48   1
    51     48     49   2
    52     49     44   1
    53     47     50   1
    54     50     51   1
    55     51     52   2
    56     52     48   1
    57     45     53   1
    58     46     54   1
    59     49     55   1
    60     50     56   1
    61     51     57   1
    62     52     58   1
    63     22     44   1
