# Produced with molli package
@<TRIPOS>MOLECULE
F_4_O
53 57 0 0 0
SMALL
USER_CHARGES

@<TRIPOS>ATOM
     1 N      -3.329348     0.593513    -0.657285 N          1 UNL1 0.000
     2 C      -4.041039    -0.670455    -0.667668 C          1 UNL1 0.000
     3 C      -3.972346     1.884362    -0.793900 C          1 UNL1 0.000
     4 C      -5.160236     2.058189    -1.525679 C          1 UNL1 0.000
     5 C      -5.768618     3.313824    -1.641270 C          1 UNL1 0.000
     6 C      -5.184047     4.431982    -1.054588 C          1 UNL1 0.000
     7 C      -3.989178     4.296725    -0.356865 C          1 UNL1 0.000
     8 C      -3.391975     3.038466    -0.228834 C          1 UNL1 0.000
     9 C      -3.405147    -1.862592    -1.062361 C          1 UNL1 0.000
    10 C      -4.093753    -3.078528    -1.134402 C          1 UNL1 0.000
    11 C      -5.453084    -3.145783    -0.815553 C          1 UNL1 0.000
    12 C      -6.110443    -1.980633    -0.372975 C          1 UNL1 0.000
    13 C      -5.388371    -0.772392    -0.272577 C          1 UNL1 0.000
    14 C      -6.169580    -4.348025    -0.934685 C          1 UNL1 0.000
    15 C      -7.530457    -4.395672    -0.632058 C          1 UNL1 0.000
    16 C      -8.184443    -3.247890    -0.196107 C          1 UNL1 0.000
    17 C      -7.479024    -2.049750    -0.059578 C          1 UNL1 0.000
    18 C      -1.891325     0.572787    -0.709060 C          1 UNL1 0.000
    19 C      -1.234687     0.613890    -1.945764 C          1 UNL1 0.000
    20 C       0.153372     0.568150    -1.993705 C          1 UNL1 0.000
    21 C       0.903479     0.472927    -0.821006 C          1 UNL1 0.000
    22 C       0.267940     0.454791     0.432312 C          1 UNL1 0.000
    23 C      -1.136203     0.495718     0.471572 C          1 UNL1 0.000
    24 O       0.748417     0.541171    -3.225408 O          1 UNL1 0.000
    25 C       1.465411     1.750256    -3.470687 C          1 UNL1 0.000
    26 H      -5.621489     1.219201    -2.039720 H          1 UNL1 0.000
    27 H      -6.695199     3.415931    -2.200085 H          1 UNL1 0.000
    28 H      -5.652662     5.407804    -1.149076 H          1 UNL1 0.000
    29 H      -3.516499     5.166274     0.092438 H          1 UNL1 0.000
    30 H      -2.464664     2.973114     0.335092 H          1 UNL1 0.000
    31 H      -2.357120    -1.871809    -1.349451 H          1 UNL1 0.000
    32 H      -3.556991    -3.964968    -1.462738 H          1 UNL1 0.000
    33 H      -5.900430     0.103574     0.117268 H          1 UNL1 0.000
    34 H      -5.673078    -5.253393    -1.275045 H          1 UNL1 0.000
    35 H      -8.077709    -5.328442    -0.740595 H          1 UNL1 0.000
    36 H      -9.246073    -3.281609     0.034614 H          1 UNL1 0.000
    37 H      -8.010208    -1.162958     0.277407 H          1 UNL1 0.000
    38 H      -1.810442     0.664257    -2.865504 H          1 UNL1 0.000
    39 H       1.987607     0.423186    -0.880636 H          1 UNL1 0.000
    40 H      -1.649557     0.480767     1.431648 H          1 UNL1 0.000
    41 H       2.406651     1.763994    -2.912257 H          1 UNL1 0.000
    42 H       0.862742     2.633945    -3.231230 H          1 UNL1 0.000
    43 H       1.704120     1.784450    -4.537999 H          1 UNL1 0.000
    44 C       1.045587     0.415169     1.673855 C          1 UNL1 0.000
    45 N       0.890136     1.485453     2.492591 N          1 UNL1 0.000
    46 C       1.609596     1.504210     3.635717 C          1 UNL1 0.000
    47 C       2.476871     0.495232     4.017193 C          1 UNL1 0.000
    48 C       2.617152    -0.601181     3.175588 C          1 UNL1 0.000
    49 C       1.896490    -0.643391     1.984339 C          1 UNL1 0.000
    50 H       1.465987     2.383755     4.256844 H          1 UNL1 0.000
    51 H       3.027683     0.561998     4.948598 H          1 UNL1 0.000
    52 H       3.281537    -1.417701     3.443273 H          1 UNL1 0.000
    53 H       1.990525    -1.493963     1.317035 H          1 UNL1 0.000
@<TRIPOS>BOND
     1      1      2   1
     2      1      3   1
     3      3      4   2
     4      4      5   1
     5      5      6   2
     6      6      7   1
     7      7      8   2
     8      8      3   1
     9      2      9   2
    10      9     10   1
    11     10     11   2
    12     11     12   1
    13     12     13   2
    14     13      2   1
    15     11     14   1
    16     14     15   2
    17     15     16   1
    18     16     17   2
    19     17     12   1
    20     18     19   2
    21     19     20   1
    22     20     21   2
    23     21     22   1
    24     22     23   2
    25     23     18   1
    26     24     25   1
    27     20     24   1
    28      1     18   1
    29      4     26   1
    30      5     27   1
    31      6     28   1
    32      7     29   1
    33      8     30   1
    34      9     31   1
    35     10     32   1
    36     13     33   1
    37     14     34   1
    38     15     35   1
    39     16     36   1
    40     17     37   1
    41     19     38   1
    42     21     39   1
    43     23     40   1
    44     25     41   1
    45     25     42   1
    46     25     43   1
    47     44     45   2
    48     45     46   1
    49     46     47   2
    50     47     48   1
    51     48     49   2
    52     49     44   1
    53     46     50   1
    54     47     51   1
    55     48     52   1
    56     49     53   1
    57     22     44   1
