# Produced with molli package
@<TRIPOS>MOLECULE
F_4_N
51 55 0 0 0
SMALL
USER_CHARGES

@<TRIPOS>ATOM
     1 N      -3.230048     0.554132    -0.756880 N          1 UNL1 0.000
     2 C      -3.912614    -0.728898    -0.721139 C          1 UNL1 0.000
     3 C      -3.881361     1.843228    -0.900521 C          1 UNL1 0.000
     4 C      -5.119252     2.005605    -1.544749 C          1 UNL1 0.000
     5 C      -5.738306     3.259643    -1.639430 C          1 UNL1 0.000
     6 C      -5.109232     4.393807    -1.136741 C          1 UNL1 0.000
     7 C      -3.857764     4.276595    -0.546577 C          1 UNL1 0.000
     8 C      -3.256153     3.019042    -0.428962 C          1 UNL1 0.000
     9 C      -3.220066    -1.924330    -1.002601 C          1 UNL1 0.000
    10 C      -3.860040    -3.168576    -1.028630 C          1 UNL1 0.000
    11 C      -5.232938    -3.263949    -0.791105 C          1 UNL1 0.000
    12 C      -5.951980    -2.097365    -0.466818 C          1 UNL1 0.000
    13 C      -5.273572    -0.860072    -0.389833 C          1 UNL1 0.000
    14 C      -5.900844    -4.496701    -0.878494 C          1 UNL1 0.000
    15 C      -7.278041    -4.572211    -0.671569 C          1 UNL1 0.000
    16 C      -7.995946    -3.422168    -0.360913 C          1 UNL1 0.000
    17 C      -7.337620    -2.194651    -0.247798 C          1 UNL1 0.000
    18 C      -1.789515     0.548842    -0.776625 C          1 UNL1 0.000
    19 C      -1.105197     0.560327    -1.999602 C          1 UNL1 0.000
    20 C       0.285481     0.525015    -2.012691 C          1 UNL1 0.000
    21 C       1.013112     0.482879    -0.824304 C          1 UNL1 0.000
    22 C       0.337384     0.499046     0.401710 C          1 UNL1 0.000
    23 C      -1.063143     0.511973     0.423567 C          1 UNL1 0.000
    24 O       0.923009     0.452008    -3.219249 O          1 UNL1 0.000
    25 C       1.396979     1.735931    -3.623886 C          1 UNL1 0.000
    26 H      -5.620974     1.161964    -2.009642 H          1 UNL1 0.000
    27 H      -6.710352     3.347512    -2.118042 H          1 UNL1 0.000
    28 H      -5.586127     5.366954    -1.216544 H          1 UNL1 0.000
    29 H      -3.344830     5.158562    -0.171732 H          1 UNL1 0.000
    30 H      -2.282954     2.977550     0.052080 H          1 UNL1 0.000
    31 H      -2.156871    -1.919972    -1.228706 H          1 UNL1 0.000
    32 H      -3.274011    -4.053945    -1.261348 H          1 UNL1 0.000
    33 H      -5.838000     0.009002    -0.065679 H          1 UNL1 0.000
    34 H      -5.353551    -5.403862    -1.122220 H          1 UNL1 0.000
    35 H      -7.787708    -5.528301    -0.758828 H          1 UNL1 0.000
    36 H      -9.071062    -3.477192    -0.210212 H          1 UNL1 0.000
    37 H      -7.919340    -1.307735    -0.009812 H          1 UNL1 0.000
    38 H      -1.659852     0.568577    -2.933648 H          1 UNL1 0.000
    39 H       2.098268     0.442112    -0.858453 H          1 UNL1 0.000
    40 H      -1.601633     0.496834     1.368749 H          1 UNL1 0.000
    41 H       2.475706     1.789931    -3.449932 H          1 UNL1 0.000
    42 H       0.898375     2.569140    -3.113992 H          1 UNL1 0.000
    43 H       1.214452     1.837357    -4.698120 H          1 UNL1 0.000
    44 C       1.085120     0.501704     1.647811 C          1 UNL1 0.000
    45 C       1.003316     1.561545     2.530396 C          1 UNL1 0.000
    46 S       1.980347     1.331942     3.917039 S          1 UNL1 0.000
    47 C       2.522099    -0.187572     3.349284 C          1 UNL1 0.000
    48 C       1.976077    -0.508414     2.125435 C          1 UNL1 0.000
    49 H       0.422039     2.468712     2.431926 H          1 UNL1 0.000
    50 H       3.214337    -0.771660     3.939798 H          1 UNL1 0.000
    51 H       2.194824    -1.432141     1.603473 H          1 UNL1 0.000
@<TRIPOS>BOND
     1      1      2   1
     2      1      3   1
     3      3      4   2
     4      4      5   1
     5      5      6   2
     6      6      7   1
     7      7      8   2
     8      8      3   1
     9      2      9   2
    10      9     10   1
    11     10     11   2
    12     11     12   1
    13     12     13   2
    14     13      2   1
    15     11     14   1
    16     14     15   2
    17     15     16   1
    18     16     17   2
    19     17     12   1
    20     18     19   2
    21     19     20   1
    22     20     21   2
    23     21     22   1
    24     22     23   2
    25     23     18   1
    26     24     25   1
    27     20     24   1
    28      1     18   1
    29      4     26   1
    30      5     27   1
    31      6     28   1
    32      7     29   1
    33      8     30   1
    34      9     31   1
    35     10     32   1
    36     13     33   1
    37     14     34   1
    38     15     35   1
    39     16     36   1
    40     17     37   1
    41     19     38   1
    42     21     39   1
    43     23     40   1
    44     25     41   1
    45     25     42   1
    46     25     43   1
    47     44     45   2
    48     45     46   1
    49     46     47   1
    50     47     48   2
    51     48     44   1
    52     45     49   1
    53     47     50   1
    54     48     51   1
    55     22     44   1
