# Produced with molli package
@<TRIPOS>MOLECULE
F_4_T
57 61 0 0 0
SMALL
USER_CHARGES

@<TRIPOS>ATOM
     1 N      -3.254503     0.476674    -0.614308 N          1 UNL1 0.000
     2 C      -3.961289    -0.789694    -0.668329 C          1 UNL1 0.000
     3 C      -3.898473     1.767176    -0.471617 C          1 UNL1 0.000
     4 C      -5.117520     1.930262     0.208819 C          1 UNL1 0.000
     5 C      -5.747705     3.178237     0.291929 C          1 UNL1 0.000
     6 C      -5.149267     4.304067    -0.264557 C          1 UNL1 0.000
     7 C      -3.915919     4.185144    -0.893482 C          1 UNL1 0.000
     8 C      -3.300208     2.933225    -0.994390 C          1 UNL1 0.000
     9 C      -3.307293    -1.996992    -0.353740 C          1 UNL1 0.000
    10 C      -3.980414    -3.224033    -0.355122 C          1 UNL1 0.000
    11 C      -5.343988    -3.288527    -0.654205 C          1 UNL1 0.000
    12 C      -6.022409    -2.103140    -1.006656 C          1 UNL1 0.000
    13 C      -5.312551    -0.885286    -1.048237 C          1 UNL1 0.000
    14 C      -6.048055    -4.502428    -0.603041 C          1 UNL1 0.000
    15 C      -7.415575    -4.543633    -0.874701 C          1 UNL1 0.000
    16 C      -8.090506    -3.375002    -1.214390 C          1 UNL1 0.000
    17 C      -7.397132    -2.165202    -1.289901 C          1 UNL1 0.000
    18 C      -1.816590     0.455718    -0.679240 C          1 UNL1 0.000
    19 C      -1.169637     0.338600    -1.914622 C          1 UNL1 0.000
    20 C       0.219307     0.356582    -1.965958 C          1 UNL1 0.000
    21 C       0.978127     0.394040    -0.795593 C          1 UNL1 0.000
    22 C       0.349333     0.479086     0.456108 C          1 UNL1 0.000
    23 C      -1.052715     0.543145     0.498284 C          1 UNL1 0.000
    24 O       0.820857     0.288045    -3.193076 O          1 UNL1 0.000
    25 C       1.369978     1.560169    -3.542627 C          1 UNL1 0.000
    26 H      -5.595174     1.086709     0.699961 H          1 UNL1 0.000
    27 H      -6.705254     3.267367     0.798462 H          1 UNL1 0.000
    28 H      -5.637157     5.272798    -0.199101 H          1 UNL1 0.000
    29 H      -3.430132     5.061628    -1.314270 H          1 UNL1 0.000
    30 H      -2.344707     2.884326    -1.509459 H          1 UNL1 0.000
    31 H      -2.255385    -2.008754    -0.080496 H          1 UNL1 0.000
    32 H      -3.427391    -4.124523    -0.097267 H          1 UNL1 0.000
    33 H      -5.841672     0.002348    -1.385443 H          1 UNL1 0.000
    34 H      -5.535574    -5.424674    -0.337956 H          1 UNL1 0.000
    35 H      -7.952728    -5.486550    -0.816243 H          1 UNL1 0.000
    36 H      -9.157820    -3.402902    -1.417166 H          1 UNL1 0.000
    37 H      -7.944288    -1.262357    -1.552640 H          1 UNL1 0.000
    38 H      -1.749642     0.267361    -2.829963 H          1 UNL1 0.000
    39 H       2.062838     0.350155    -0.857169 H          1 UNL1 0.000
    40 H      -1.565302     0.613603     1.456096 H          1 UNL1 0.000
    41 H       2.315639     1.728634    -3.017327 H          1 UNL1 0.000
    42 H       0.669736     2.379293    -3.337675 H          1 UNL1 0.000
    43 H       1.572618     1.554326    -4.617726 H          1 UNL1 0.000
    44 C       1.137502     0.463838     1.692786 C          1 UNL1 0.000
    45 C       1.782697    -0.710514     2.109905 C          1 UNL1 0.000
    46 C       2.531184    -0.740532     3.290254 C          1 UNL1 0.000
    47 C       2.651947     0.406615     4.079683 C          1 UNL1 0.000
    48 C       2.015384     1.583170     3.667936 C          1 UNL1 0.000
    49 C       1.262280     1.609680     2.489332 C          1 UNL1 0.000
    50 C       3.461409     0.391868     5.342418 C          1 UNL1 0.000
    51 H       1.696403    -1.618896     1.516563 H          1 UNL1 0.000
    52 H       3.014817    -1.668532     3.586566 H          1 UNL1 0.000
    53 H       2.101120     2.488901     4.264189 H          1 UNL1 0.000
    54 H       0.776326     2.536391     2.191518 H          1 UNL1 0.000
    55 H       2.852635     0.730878     6.186840 H          1 UNL1 0.000
    56 H       4.331831     1.047485     5.239040 H          1 UNL1 0.000
    57 H       3.822118    -0.615321     5.576474 H          1 UNL1 0.000
@<TRIPOS>BOND
     1      1      2   1
     2      1      3   1
     3      3      4   2
     4      4      5   1
     5      5      6   2
     6      6      7   1
     7      7      8   2
     8      8      3   1
     9      2      9   2
    10      9     10   1
    11     10     11   2
    12     11     12   1
    13     12     13   2
    14     13      2   1
    15     11     14   1
    16     14     15   2
    17     15     16   1
    18     16     17   2
    19     17     12   1
    20     18     19   2
    21     19     20   1
    22     20     21   2
    23     21     22   1
    24     22     23   2
    25     23     18   1
    26     24     25   1
    27     20     24   1
    28      1     18   1
    29      4     26   1
    30      5     27   1
    31      6     28   1
    32      7     29   1
    33      8     30   1
    34      9     31   1
    35     10     32   1
    36     13     33   1
    37     14     34   1
    38     15     35   1
    39     16     36   1
    40     17     37   1
    41     19     38   1
    42     21     39   1
    43     23     40   1
    44     25     41   1
    45     25     42   1
    46     25     43   1
    47     44     45   2
    48     45     46   1
    49     46     47   2
    50     47     48   1
    51     48     49   2
    52     49     44   1
    53     47     50   1
    54     45     51   1
    55     46     52   1
    56     48     53   1
    57     49     54   1
    58     50     55   1
    59     50     56   1
    60     50     57   1
    61     22     44   1
