# Produced with molli package
@<TRIPOS>MOLECULE
F_4_K
56 60 0 0 0
SMALL
USER_CHARGES

@<TRIPOS>ATOM
     1 N      -3.237969     0.471336    -0.639470 N          1 UNL1 0.000
     2 C      -3.906025    -0.817385    -0.682502 C          1 UNL1 0.000
     3 C      -3.911444     1.751983    -0.737221 C          1 UNL1 0.000
     4 C      -5.112842     1.924421    -1.445143 C          1 UNL1 0.000
     5 C      -5.747728     3.171383    -1.514848 C          1 UNL1 0.000
     6 C      -5.173948     4.286370    -0.911900 C          1 UNL1 0.000
     7 C      -3.962849     4.157318    -0.243660 C          1 UNL1 0.000
     8 C      -3.342733     2.906577    -0.157362 C          1 UNL1 0.000
     9 C      -3.204265    -1.987342    -1.036549 C          1 UNL1 0.000
    10 C      -3.837168    -3.230992    -1.136393 C          1 UNL1 0.000
    11 C      -5.206999    -3.352418    -0.895346 C          1 UNL1 0.000
    12 C      -5.934564    -2.211561    -0.497612 C          1 UNL1 0.000
    13 C      -5.265893    -0.975935    -0.358162 C          1 UNL1 0.000
    14 C      -5.866454    -4.582489    -1.048143 C          1 UNL1 0.000
    15 C      -7.239788    -4.683735    -0.829261 C          1 UNL1 0.000
    16 C      -7.964283    -3.560395    -0.442628 C          1 UNL1 0.000
    17 C      -7.315586    -2.335324    -0.268907 C          1 UNL1 0.000
    18 C      -1.798829     0.493783    -0.677198 C          1 UNL1 0.000
    19 C      -1.131981     0.568612    -1.906499 C          1 UNL1 0.000
    20 C       0.257434     0.575633    -1.938505 C          1 UNL1 0.000
    21 C       0.999301     0.512133    -0.758561 C          1 UNL1 0.000
    22 C       0.348916     0.459367     0.484324 C          1 UNL1 0.000
    23 C      -1.054425     0.430518     0.511376 C          1 UNL1 0.000
    24 O       0.871307     0.565540    -3.160603 O          1 UNL1 0.000
    25 C       1.443804     1.840116    -3.448496 C          1 UNL1 0.000
    26 H      -5.567175     1.094518    -1.979260 H          1 UNL1 0.000
    27 H      -6.687275     3.270083    -2.052549 H          1 UNL1 0.000
    28 H      -5.662947     5.254961    -0.972751 H          1 UNL1 0.000
    29 H      -3.496052     5.025556     0.214241 H          1 UNL1 0.000
    30 H      -2.403088     2.849905     0.384588 H          1 UNL1 0.000
    31 H      -2.142326    -1.959598    -1.265421 H          1 UNL1 0.000
    32 H      -3.246588    -4.096826    -1.427101 H          1 UNL1 0.000
    33 H      -5.835715    -0.126041     0.008328 H          1 UNL1 0.000
    34 H      -5.314210    -5.469277    -1.351341 H          1 UNL1 0.000
    35 H      -7.742121    -5.637885    -0.965074 H          1 UNL1 0.000
    36 H      -9.036236    -3.635376    -0.279810 H          1 UNL1 0.000
    37 H      -7.902353    -1.468988     0.028224 H          1 UNL1 0.000
    38 H      -1.699171     0.598918    -2.832559 H          1 UNL1 0.000
    39 H       2.085263     0.501332    -0.807571 H          1 UNL1 0.000
    40 H      -1.582148     0.372255     1.461632 H          1 UNL1 0.000
    41 H       2.395890     1.959026    -2.922000 H          1 UNL1 0.000
    42 H       0.762467     2.661885    -3.198983 H          1 UNL1 0.000
    43 H       1.640525     1.881281    -4.524117 H          1 UNL1 0.000
    44 C       1.114105     0.457494     1.733195 C          1 UNL1 0.000
    45 C       1.258384     1.643201     2.474818 C          1 UNL1 0.000
    46 C       1.984080     1.659559     3.668657 C          1 UNL1 0.000
    47 C       2.566750     0.474912     4.130996 C          1 UNL1 0.000
    48 C       2.432352    -0.718050     3.411039 C          1 UNL1 0.000
    49 C       1.709604    -0.719538     2.213815 C          1 UNL1 0.000
    50 N       3.326544     0.484373     5.383199 N          1 UNL1 0.000
    51 O       3.504212    -0.599579     5.955894 O          1 UNL1 0.000
    52 O       3.745574     1.577241     5.791778 O          1 UNL1 0.000
    53 H       0.803224     2.566151     2.117815 H          1 UNL1 0.000
    54 H       2.080727     2.591598     4.221604 H          1 UNL1 0.000
    55 H       2.881133    -1.644283     3.763772 H          1 UNL1 0.000
    56 H       1.604584    -1.649157     1.656106 H          1 UNL1 0.000
@<TRIPOS>BOND
     1      1      2   1
     2      1      3   1
     3      3      4   2
     4      4      5   1
     5      5      6   2
     6      6      7   1
     7      7      8   2
     8      8      3   1
     9      2      9   2
    10      9     10   1
    11     10     11   2
    12     11     12   1
    13     12     13   2
    14     13      2   1
    15     11     14   1
    16     14     15   2
    17     15     16   1
    18     16     17   2
    19     17     12   1
    20     18     19   2
    21     19     20   1
    22     20     21   2
    23     21     22   1
    24     22     23   2
    25     23     18   1
    26     24     25   1
    27     20     24   1
    28      1     18   1
    29      4     26   1
    30      5     27   1
    31      6     28   1
    32      7     29   1
    33      8     30   1
    34      9     31   1
    35     10     32   1
    36     13     33   1
    37     14     34   1
    38     15     35   1
    39     16     36   1
    40     17     37   1
    41     19     38   1
    42     21     39   1
    43     23     40   1
    44     25     41   1
    45     25     42   1
    46     25     43   1
    47     44     45   2
    48     45     46   1
    49     46     47   2
    50     47     48   1
    51     48     49   2
    52     49     44   1
    53     50     51   2
    54     50     52   1
    55     47     50   1
    56     45     53   1
    57     46     54   1
    58     48     55   1
    59     49     56   1
    60     22     44   1
