# Produced with molli package
@<TRIPOS>MOLECULE
F_4_R
55 59 0 0 0
SMALL
USER_CHARGES

@<TRIPOS>ATOM
     1 N      -3.323621     0.538101    -0.625092 N          1 UNL1 0.000
     2 C      -4.038621    -0.723429    -0.653766 C          1 UNL1 0.000
     3 C      -3.959688     1.828816    -0.786433 C          1 UNL1 0.000
     4 C      -5.098599     2.007721    -1.590693 C          1 UNL1 0.000
     5 C      -5.696522     3.265019    -1.735955 C          1 UNL1 0.000
     6 C      -5.150492     4.377750    -1.102959 C          1 UNL1 0.000
     7 C      -4.004489     4.235745    -0.328550 C          1 UNL1 0.000
     8 C      -3.416794     2.976396    -0.173514 C          1 UNL1 0.000
     9 C      -3.389414    -1.923194    -1.002304 C          1 UNL1 0.000
    10 C      -4.078794    -3.137698    -1.087497 C          1 UNL1 0.000
    11 C      -5.450651    -3.197642    -0.829078 C          1 UNL1 0.000
    12 C      -6.124356    -2.022926    -0.434467 C          1 UNL1 0.000
    13 C      -5.403196    -0.815929    -0.320907 C          1 UNL1 0.000
    14 C      -6.165448    -4.399018    -0.960690 C          1 UNL1 0.000
    15 C      -7.538217    -4.439262    -0.717985 C          1 UNL1 0.000
    16 C      -8.207696    -3.282808    -0.329665 C          1 UNL1 0.000
    17 C      -7.505140    -2.084686    -0.181602 C          1 UNL1 0.000
    18 C      -1.885305     0.518395    -0.648174 C          1 UNL1 0.000
    19 C      -1.204149     0.550891    -1.871966 C          1 UNL1 0.000
    20 C       0.184806     0.513508    -1.892157 C          1 UNL1 0.000
    21 C       0.911468     0.434107    -0.703769 C          1 UNL1 0.000
    22 C       0.249988     0.423147     0.535915 C          1 UNL1 0.000
    23 C      -1.154219     0.455284     0.548072 C          1 UNL1 0.000
    24 O       0.804083     0.477929    -3.111400 O          1 UNL1 0.000
    25 C       1.529646     1.682921    -3.352258 C          1 UNL1 0.000
    26 H      -5.525549     1.171657    -2.138333 H          1 UNL1 0.000
    27 H      -6.583997     3.373399    -2.353973 H          1 UNL1 0.000
    28 H      -5.610970     5.355028    -1.220522 H          1 UNL1 0.000
    29 H      -3.562940     5.101275     0.158664 H          1 UNL1 0.000
    30 H      -2.528307     2.904153     0.448599 H          1 UNL1 0.000
    31 H      -2.329751    -1.939711    -1.241599 H          1 UNL1 0.000
    32 H      -3.531015    -4.031017    -1.378737 H          1 UNL1 0.000
    33 H      -5.931000     0.067744     0.030041 H          1 UNL1 0.000
    34 H      -5.657174    -5.311432    -1.264544 H          1 UNL1 0.000
    35 H      -8.083160    -5.372189    -0.835635 H          1 UNL1 0.000
    36 H      -9.278463    -3.310715    -0.145586 H          1 UNL1 0.000
    37 H      -8.048619    -1.191128     0.117476 H          1 UNL1 0.000
    38 H      -1.761782     0.590382    -2.803528 H          1 UNL1 0.000
    39 H       1.996853     0.390527    -0.742109 H          1 UNL1 0.000
    40 H      -1.688668     0.447111     1.496523 H          1 UNL1 0.000
    41 H       2.457327     1.700974    -2.771668 H          1 UNL1 0.000
    42 H       0.923153     2.570036    -3.136467 H          1 UNL1 0.000
    43 H       1.794200     1.705362    -4.413773 H          1 UNL1 0.000
    44 C       1.003356     0.404171     1.790697 C          1 UNL1 0.000
    45 N       0.892994     1.523893     2.552642 N          1 UNL1 0.000
    46 C       1.598249     1.572447     3.709816 C          1 UNL1 0.000
    47 C       2.408451     0.536236     4.140742 C          1 UNL1 0.000
    48 C       2.509453    -0.617799     3.363510 C          1 UNL1 0.000
    49 C       1.794568    -0.681753     2.166911 C          1 UNL1 0.000
    50 N       3.146319     0.667898     5.384504 N          1 UNL1 0.000
    51 O       4.123538    -0.074579     5.550529 O          1 UNL1 0.000
    52 O       2.753903     1.514939     6.198683 O          1 UNL1 0.000
    53 H       1.484640     2.497589     4.269682 H          1 UNL1 0.000
    54 H       3.126881    -1.458249     3.670930 H          1 UNL1 0.000
    55 H       1.849560    -1.568617     1.541874 H          1 UNL1 0.000
@<TRIPOS>BOND
     1      1      2   1
     2      1      3   1
     3      3      4   2
     4      4      5   1
     5      5      6   2
     6      6      7   1
     7      7      8   2
     8      8      3   1
     9      2      9   2
    10      9     10   1
    11     10     11   2
    12     11     12   1
    13     12     13   2
    14     13      2   1
    15     11     14   1
    16     14     15   2
    17     15     16   1
    18     16     17   2
    19     17     12   1
    20     18     19   2
    21     19     20   1
    22     20     21   2
    23     21     22   1
    24     22     23   2
    25     23     18   1
    26     24     25   1
    27     20     24   1
    28      1     18   1
    29      4     26   1
    30      5     27   1
    31      6     28   1
    32      7     29   1
    33      8     30   1
    34      9     31   1
    35     10     32   1
    36     13     33   1
    37     14     34   1
    38     15     35   1
    39     16     36   1
    40     17     37   1
    41     19     38   1
    42     21     39   1
    43     23     40   1
    44     25     41   1
    45     25     42   1
    46     25     43   1
    47     44     45   2
    48     45     46   1
    49     46     47   2
    50     47     48   1
    51     48     49   2
    52     49     44   1
    53     50     51   2
    54     50     52   1
    55     47     50   1
    56     46     53   1
    57     48     54   1
    58     49     55   1
    59     22     44   1
