# Produced with molli package
@<TRIPOS>MOLECULE
F_4_P
58 62 0 0 0
SMALL
USER_CHARGES

@<TRIPOS>ATOM
     1 N      -3.255200     0.597903    -0.713965 N          1 UNL1 0.000
     2 C      -3.962282    -0.668734    -0.780465 C          1 UNL1 0.000
     3 C      -3.897154     1.895939    -0.628982 C          1 UNL1 0.000
     4 C      -5.146112     2.082876    -0.012305 C          1 UNL1 0.000
     5 C      -5.777641     3.333436    -0.000299 C          1 UNL1 0.000
     6 C      -5.149684     4.441797    -0.558959 C          1 UNL1 0.000
     7 C      -3.884551     4.303718    -1.115616 C          1 UNL1 0.000
     8 C      -3.268502     3.048181    -1.148539 C          1 UNL1 0.000
     9 C      -3.309935    -1.877032    -0.463186 C          1 UNL1 0.000
    10 C      -3.978241    -3.106735    -0.483515 C          1 UNL1 0.000
    11 C      -5.337459    -3.174142    -0.799290 C          1 UNL1 0.000
    12 C      -6.015585    -1.987811    -1.149916 C          1 UNL1 0.000
    13 C      -5.307767    -0.768309    -1.178388 C          1 UNL1 0.000
    14 C      -6.038323    -4.390400    -0.766975 C          1 UNL1 0.000
    15 C      -7.403113    -4.433217    -1.051381 C          1 UNL1 0.000
    16 C      -8.078694    -3.263128    -1.385244 C          1 UNL1 0.000
    17 C      -7.387587    -2.051311    -1.444990 C          1 UNL1 0.000
    18 C      -1.816021     0.571779    -0.754472 C          1 UNL1 0.000
    19 C      -1.150073     0.460726    -1.980233 C          1 UNL1 0.000
    20 C       0.238694     0.496718    -2.011037 C          1 UNL1 0.000
    21 C       0.980561     0.544237    -0.830359 C          1 UNL1 0.000
    22 C       0.333609     0.624355     0.412781 C          1 UNL1 0.000
    23 C      -1.070377     0.666511     0.434173 C          1 UNL1 0.000
    24 O       0.859188     0.456354    -3.229771 O          1 UNL1 0.000
    25 C       1.363145     1.751496    -3.564965 C          1 UNL1 0.000
    26 H      -5.649894     1.256644     0.481983 H          1 UNL1 0.000
    27 H      -6.760470     3.438270     0.451971 H          1 UNL1 0.000
    28 H      -5.639020     5.411961    -0.550046 H          1 UNL1 0.000
    29 H      -3.374021     5.167129    -1.534195 H          1 UNL1 0.000
    30 H      -2.286861     2.987192    -1.609978 H          1 UNL1 0.000
    31 H      -2.261635    -1.888475    -0.176548 H          1 UNL1 0.000
    32 H      -3.424812    -4.007476    -0.226664 H          1 UNL1 0.000
    33 H      -5.836553     0.116117    -1.523747 H          1 UNL1 0.000
    34 H      -5.525363    -5.313818    -0.506258 H          1 UNL1 0.000
    35 H      -7.938073    -5.378080    -1.006706 H          1 UNL1 0.000
    36 H      -9.144422    -3.291804    -1.595848 H          1 UNL1 0.000
    37 H      -7.935288    -1.147371    -1.703587 H          1 UNL1 0.000
    38 H      -1.716199     0.390131    -2.904321 H          1 UNL1 0.000
    39 H       2.066606     0.526415    -0.879688 H          1 UNL1 0.000
    40 H      -1.598645     0.738370     1.383389 H          1 UNL1 0.000
    41 H       2.326197     1.923291    -3.073606 H          1 UNL1 0.000
    42 H       0.658074     2.551455    -3.306319 H          1 UNL1 0.000
    43 H       1.519744     1.781674    -4.647301 H          1 UNL1 0.000
    44 C       1.108461     0.663914     1.658532 C          1 UNL1 0.000
    45 C       1.860878    -0.447790     2.074425 C          1 UNL1 0.000
    46 C       2.613268    -0.407428     3.253259 C          1 UNL1 0.000
    47 C       2.630746     0.754699     4.021240 C          1 UNL1 0.000
    48 C       1.862877     1.852967     3.643843 C          1 UNL1 0.000
    49 C       1.113215     1.811353     2.465666 C          1 UNL1 0.000
    50 O       3.334476     0.866444     5.188818 O          1 UNL1 0.000
    51 C       4.716638     0.555988     5.021299 C          1 UNL1 0.000
    52 H       1.851902    -1.362638     1.484559 H          1 UNL1 0.000
    53 H       3.161013    -1.290836     3.566266 H          1 UNL1 0.000
    54 H       1.859488     2.748134     4.259311 H          1 UNL1 0.000
    55 H       0.536591     2.686925     2.175121 H          1 UNL1 0.000
    56 H       5.257823     0.977126     5.874146 H          1 UNL1 0.000
    57 H       5.126897     1.006552     4.109875 H          1 UNL1 0.000
    58 H       4.875435    -0.526688     5.022124 H          1 UNL1 0.000
@<TRIPOS>BOND
     1      1      2   1
     2      1      3   1
     3      3      4   2
     4      4      5   1
     5      5      6   2
     6      6      7   1
     7      7      8   2
     8      8      3   1
     9      2      9   2
    10      9     10   1
    11     10     11   2
    12     11     12   1
    13     12     13   2
    14     13      2   1
    15     11     14   1
    16     14     15   2
    17     15     16   1
    18     16     17   2
    19     17     12   1
    20     18     19   2
    21     19     20   1
    22     20     21   2
    23     21     22   1
    24     22     23   2
    25     23     18   1
    26     24     25   1
    27     20     24   1
    28      1     18   1
    29      4     26   1
    30      5     27   1
    31      6     28   1
    32      7     29   1
    33      8     30   1
    34      9     31   1
    35     10     32   1
    36     13     33   1
    37     14     34   1
    38     15     35   1
    39     16     36   1
    40     17     37   1
    41     19     38   1
    42     21     39   1
    43     23     40   1
    44     25     41   1
    45     25     42   1
    46     25     43   1
    47     44     45   2
    48     45     46   1
    49     46     47   2
    50     47     48   1
    51     48     49   2
    52     49     44   1
    53     50     51   1
    54     47     50   1
    55     45     52   1
    56     46     53   1
    57     48     54   1
    58     49     55   1
    59     51     56   1
    60     51     57   1
    61     51     58   1
    62     22     44   1
