# Produced with molli package
@<TRIPOS>MOLECULE
F_4_S
59 63 0 0 0
SMALL
USER_CHARGES

@<TRIPOS>ATOM
     1 N      -3.198879     0.461318    -0.691858 N          1 UNL1 0.000
     2 C      -3.913824    -0.802661    -0.660496 C          1 UNL1 0.000
     3 C      -3.826379     1.762770    -0.837342 C          1 UNL1 0.000
     4 C      -5.055264     1.947237    -1.493523 C          1 UNL1 0.000
     5 C      -5.655003     3.210253    -1.585768 C          1 UNL1 0.000
     6 C      -5.013694     4.331264    -1.069377 C          1 UNL1 0.000
     7 C      -3.769085     4.191845    -0.468885 C          1 UNL1 0.000
     8 C      -3.186996     2.925065    -0.353226 C          1 UNL1 0.000
     9 C      -3.260722    -2.014792    -0.960736 C          1 UNL1 0.000
    10 C      -3.945277    -3.235190    -1.004166 C          1 UNL1 0.000
    11 C      -5.321097    -3.288242    -0.767362 C          1 UNL1 0.000
    12 C      -5.998836    -2.102048    -0.419645 C          1 UNL1 0.000
    13 C      -5.276358    -0.893965    -0.322212 C          1 UNL1 0.000
    14 C      -6.037040    -4.491329    -0.879131 C          1 UNL1 0.000
    15 C      -7.416739    -4.518738    -0.676057 C          1 UNL1 0.000
    16 C      -8.091655    -3.348471    -0.342690 C          1 UNL1 0.000
    17 C      -7.386503    -2.150955    -0.203479 C          1 UNL1 0.000
    18 C      -1.759382     0.430106    -0.731638 C          1 UNL1 0.000
    19 C      -1.092142     0.461487    -1.962387 C          1 UNL1 0.000
    20 C       0.297564     0.458178    -1.994805 C          1 UNL1 0.000
    21 C       1.039484     0.416289    -0.813423 C          1 UNL1 0.000
    22 C       0.389612     0.398738     0.430972 C          1 UNL1 0.000
    23 C      -1.014631     0.387258     0.458130 C          1 UNL1 0.000
    24 O       0.906488     0.433606    -3.219386 O          1 UNL1 0.000
    25 C       1.536113     1.683397    -3.498748 C          1 UNL1 0.000
    26 H      -5.564982     1.113046    -1.967096 H          1 UNL1 0.000
    27 H      -6.621449     3.315161    -2.072132 H          1 UNL1 0.000
    28 H      -5.475900     5.311677    -1.146249 H          1 UNL1 0.000
    29 H      -3.246977     5.063857    -0.083684 H          1 UNL1 0.000
    30 H      -2.219353     2.864430     0.136790 H          1 UNL1 0.000
    31 H      -2.199193    -2.038903    -1.192506 H          1 UNL1 0.000
    32 H      -3.391726    -4.137278    -1.254684 H          1 UNL1 0.000
    33 H      -5.809070    -0.009558     0.016737 H          1 UNL1 0.000
    34 H      -5.524802    -5.414221    -1.141848 H          1 UNL1 0.000
    35 H      -7.963247    -5.451866    -0.784659 H          1 UNL1 0.000
    36 H      -9.168440    -3.364869    -0.196013 H          1 UNL1 0.000
    37 H      -7.934427    -1.246281     0.050700 H          1 UNL1 0.000
    38 H      -1.659027     0.481559    -2.888877 H          1 UNL1 0.000
    39 H       2.125438     0.401631    -0.860913 H          1 UNL1 0.000
    40 H      -1.542268     0.368061     1.410094 H          1 UNL1 0.000
    41 H       2.517894     1.730540    -3.017604 H          1 UNL1 0.000
    42 H       0.917972     2.535385    -3.191797 H          1 UNL1 0.000
    43 H       1.682279     1.747940    -4.581302 H          1 UNL1 0.000
    44 C       1.155378     0.426212     1.679958 C          1 UNL1 0.000
    45 C       1.255305     1.609915     2.423693 C          1 UNL1 0.000
    46 C       1.974360     1.643431     3.622167 C          1 UNL1 0.000
    47 C       2.610484     0.492500     4.106336 C          1 UNL1 0.000
    48 C       2.525632    -0.689748     3.362885 C          1 UNL1 0.000
    49 C       1.800969    -0.720137     2.162552 C          1 UNL1 0.000
    50 C       3.352672     0.596699     5.400588 C          1 UNL1 0.000
    51 C       4.033788    -0.611956     5.987966 C          1 UNL1 0.000
    52 O       3.428683     1.687219     5.968313 O          1 UNL1 0.000
    53 H       0.773236     2.520291     2.071649 H          1 UNL1 0.000
    54 H       2.033652     2.578844     4.176808 H          1 UNL1 0.000
    55 H       3.007879    -1.607065     3.684005 H          1 UNL1 0.000
    56 H       1.734930    -1.653450     1.605316 H          1 UNL1 0.000
    57 H       5.073955    -0.639620     5.653838 H          1 UNL1 0.000
    58 H       3.530043    -1.545230     5.734992 H          1 UNL1 0.000
    59 H       4.007565    -0.530540     7.079615 H          1 UNL1 0.000
@<TRIPOS>BOND
     1      1      2   1
     2      1      3   1
     3      3      4   2
     4      4      5   1
     5      5      6   2
     6      6      7   1
     7      7      8   2
     8      8      3   1
     9      2      9   2
    10      9     10   1
    11     10     11   2
    12     11     12   1
    13     12     13   2
    14     13      2   1
    15     11     14   1
    16     14     15   2
    17     15     16   1
    18     16     17   2
    19     17     12   1
    20     18     19   2
    21     19     20   1
    22     20     21   2
    23     21     22   1
    24     22     23   2
    25     23     18   1
    26     24     25   1
    27     20     24   1
    28      1     18   1
    29      4     26   1
    30      5     27   1
    31      6     28   1
    32      7     29   1
    33      8     30   1
    34      9     31   1
    35     10     32   1
    36     13     33   1
    37     14     34   1
    38     15     35   1
    39     16     36   1
    40     17     37   1
    41     19     38   1
    42     21     39   1
    43     23     40   1
    44     25     41   1
    45     25     42   1
    46     25     43   1
    47     44     45   2
    48     45     46   1
    49     46     47   2
    50     47     48   1
    51     48     49   2
    52     49     44   1
    53     47     50   1
    54     50     51   1
    55     50     52   2
    56     45     53   1
    57     46     54   1
    58     48     55   1
    59     49     56   1
    60     51     57   1
    61     51     58   1
    62     51     59   1
    63     22     44   1
