# Produced with molli package
@<TRIPOS>MOLECULE
F_5_K
58 63 0 0 0
SMALL
USER_CHARGES

@<TRIPOS>ATOM
     1 N      -5.497605     0.456341     3.009060 N          1 UNL1 0.000
     2 C      -6.208314    -0.808722     2.960926 C          1 UNL1 0.000
     3 C      -6.129691     1.752922     3.188850 C          1 UNL1 0.000
     4 C      -7.383057     1.914569     3.803920 C          1 UNL1 0.000
     5 C      -7.985693     3.174139     3.923721 C          1 UNL1 0.000
     6 C      -7.323323     4.314190     3.481677 C          1 UNL1 0.000
     7 C      -6.055717     4.196605     2.926825 C          1 UNL1 0.000
     8 C      -5.471637     2.933948     2.779134 C          1 UNL1 0.000
     9 C      -5.562389    -2.016442     3.290166 C          1 UNL1 0.000
    10 C      -6.249881    -3.235529     3.331894 C          1 UNL1 0.000
    11 C      -7.620920    -3.289876     3.065417 C          1 UNL1 0.000
    12 C      -8.288216    -2.107990     2.684344 C          1 UNL1 0.000
    13 C      -7.561319    -0.902923     2.587110 C          1 UNL1 0.000
    14 C      -8.343289    -4.488968     3.181581 C          1 UNL1 0.000
    15 C      -9.718844    -4.515773     2.950823 C          1 UNL1 0.000
    16 C     -10.382957    -3.349576     2.583355 C          1 UNL1 0.000
    17 C      -9.671075    -2.156757     2.438570 C          1 UNL1 0.000
    18 C      -4.056761     0.429858     3.010461 C          1 UNL1 0.000
    19 C      -3.355214     0.531918     4.218888 C          1 UNL1 0.000
    20 C      -1.960838     0.548603     4.222757 C          1 UNL1 0.000
    21 C      -1.243574     0.498540     3.018268 C          1 UNL1 0.000
    22 C      -1.941576     0.405933     1.791375 C          1 UNL1 0.000
    23 C      -3.345448     0.347604     1.803375 C          1 UNL1 0.000
    24 C       0.156368     0.555305     3.009554 C          1 UNL1 0.000
    25 C       0.861927     0.546227     1.804611 C          1 UNL1 0.000
    26 C       0.186704     0.476406     0.579991 C          1 UNL1 0.000
    27 C      -1.214711     0.396519     0.587022 C          1 UNL1 0.000
    28 H      -7.913897     1.065341     4.223855 H          1 UNL1 0.000
    29 H      -8.971301     3.260645     4.373954 H          1 UNL1 0.000
    30 H      -7.787000     5.291732     3.581836 H          1 UNL1 0.000
    31 H      -5.515851     5.082439     2.602501 H          1 UNL1 0.000
    32 H      -4.484042     2.892834     2.326999 H          1 UNL1 0.000
    33 H      -4.507181    -2.034674     3.549968 H          1 UNL1 0.000
    34 H      -5.704293    -4.135365     3.606881 H          1 UNL1 0.000
    35 H      -8.082563    -0.021009     2.223972 H          1 UNL1 0.000
    36 H      -7.840026    -5.408886     3.470782 H          1 UNL1 0.000
    37 H     -10.270803    -5.445122     3.064679 H          1 UNL1 0.000
    38 H     -11.456627    -3.365312     2.415001 H          1 UNL1 0.000
    39 H     -10.210833    -1.254911     2.158131 H          1 UNL1 0.000
    40 H      -3.901081     0.594819     5.157055 H          1 UNL1 0.000
    41 H      -1.439722     0.620841     5.174675 H          1 UNL1 0.000
    42 H      -3.902456     0.279371     0.871493 H          1 UNL1 0.000
    43 H       0.711885     0.621657     3.942509 H          1 UNL1 0.000
    44 H       1.948325     0.607169     1.826824 H          1 UNL1 0.000
    45 H      -1.746834     0.339283    -0.361532 H          1 UNL1 0.000
    46 C       0.936180     0.501381    -0.678158 C          1 UNL1 0.000
    47 C       1.126505     1.709557    -1.371103 C          1 UNL1 0.000
    48 C       1.872772     1.747876    -2.552062 C          1 UNL1 0.000
    49 C       2.426787     0.563623    -3.048487 C          1 UNL1 0.000
    50 C       2.241269    -0.652608    -2.381716 C          1 UNL1 0.000
    51 C       1.499310    -0.675893    -1.197579 C          1 UNL1 0.000
    52 N       3.218026     0.595791    -4.278169 N          1 UNL1 0.000
    53 O       3.775423     1.665318    -4.571396 O          1 UNL1 0.000
    54 O       3.283765    -0.443601    -4.945680 O          1 UNL1 0.000
    55 H       0.698988     2.632531    -0.981258 H          1 UNL1 0.000
    56 H       2.012890     2.696327    -3.066661 H          1 UNL1 0.000
    57 H       2.671257    -1.576612    -2.761781 H          1 UNL1 0.000
    58 H       1.362678    -1.620220    -0.672352 H          1 UNL1 0.000
@<TRIPOS>BOND
     1      1      2   1
     2      1      3   1
     3      3      4   2
     4      4      5   1
     5      5      6   2
     6      6      7   1
     7      7      8   2
     8      8      3   1
     9      2      9   2
    10      9     10   1
    11     10     11   2
    12     11     12   1
    13     12     13   2
    14     13      2   1
    15     11     14   1
    16     14     15   2
    17     15     16   1
    18     16     17   2
    19     17     12   1
    20     18     19   2
    21     19     20   1
    22     20     21   2
    23     21     22   1
    24     22     23   2
    25     23     18   1
    26     21     24   1
    27     24     25   2
    28     25     26   1
    29     26     27   2
    30     27     22   1
    31      1     18   1
    32      4     28   1
    33      5     29   1
    34      6     30   1
    35      7     31   1
    36      8     32   1
    37      9     33   1
    38     10     34   1
    39     13     35   1
    40     14     36   1
    41     15     37   1
    42     16     38   1
    43     17     39   1
    44     19     40   1
    45     20     41   1
    46     23     42   1
    47     24     43   1
    48     25     44   1
    49     27     45   1
    50     46     47   2
    51     47     48   1
    52     48     49   2
    53     49     50   1
    54     50     51   2
    55     51     46   1
    56     52     53   2
    57     52     54   1
    58     49     52   1
    59     47     55   1
    60     48     56   1
    61     50     57   1
    62     51     58   1
    63     26     46   1
