# Produced with molli package
@<TRIPOS>MOLECULE
F_5_P
60 65 0 0 0
SMALL
USER_CHARGES

@<TRIPOS>ATOM
     1 N      -5.447008     0.512954     2.919231 N          1 UNL1 0.000
     2 C      -6.161336    -0.752103     2.924675 C          1 UNL1 0.000
     3 C      -6.074688     1.814943     3.055666 C          1 UNL1 0.000
     4 C      -7.280056     2.010429     3.751303 C          1 UNL1 0.000
     5 C      -7.878805     3.274193     3.839026 C          1 UNL1 0.000
     6 C      -7.259569     4.384833     3.275094 C          1 UNL1 0.000
     7 C      -6.038167     4.234360     2.630810 C          1 UNL1 0.000
     8 C      -5.456962     2.966668     2.521714 C          1 UNL1 0.000
     9 C      -5.498096    -1.959557     3.221348 C          1 UNL1 0.000
    10 C      -6.179388    -3.180203     3.298841 C          1 UNL1 0.000
    11 C      -7.560687    -3.239645     3.099364 C          1 UNL1 0.000
    12 C      -8.250831    -2.058429     2.756552 C          1 UNL1 0.000
    13 C      -7.533321    -0.849987     2.627318 C          1 UNL1 0.000
    14 C      -8.270128    -4.443373     3.241032 C          1 UNL1 0.000
    15 C      -9.654010    -4.477984     3.071191 C          1 UNL1 0.000
    16 C     -10.340919    -3.313203     2.742495 C          1 UNL1 0.000
    17 C      -9.643261    -2.114794     2.575349 C          1 UNL1 0.000
    18 C      -4.006172     0.486702     2.935458 C          1 UNL1 0.000
    19 C      -3.319180     0.557836     4.154429 C          1 UNL1 0.000
    20 C      -1.924656     0.538601     4.177888 C          1 UNL1 0.000
    21 C      -1.191130     0.484525     2.983013 C          1 UNL1 0.000
    22 C      -1.874454     0.433305     1.746007 C          1 UNL1 0.000
    23 C      -3.279458     0.409505     1.737513 C          1 UNL1 0.000
    24 C       0.210533     0.491318     2.992968 C          1 UNL1 0.000
    25 C       0.932557     0.473063     1.797047 C          1 UNL1 0.000
    26 C       0.272677     0.449051     0.562525 C          1 UNL1 0.000
    27 C      -1.131383     0.420865     0.551950 C          1 UNL1 0.000
    28 H      -7.769692     1.184765     4.259753 H          1 UNL1 0.000
    29 H      -8.826328     3.388372     4.359258 H          1 UNL1 0.000
    30 H      -7.720120     5.366235     3.348910 H          1 UNL1 0.000
    31 H      -5.532376     5.098298     2.207509 H          1 UNL1 0.000
    32 H      -4.507106     2.895702     1.998536 H          1 UNL1 0.000
    33 H      -4.429799    -1.979001     3.419904 H          1 UNL1 0.000
    34 H      -5.616843    -4.078757     3.543002 H          1 UNL1 0.000
    35 H      -8.077674     0.029793     2.294039 H          1 UNL1 0.000
    36 H      -7.748202    -5.362294     3.499619 H          1 UNL1 0.000
    37 H     -10.194214    -5.412078     3.200721 H          1 UNL1 0.000
    38 H     -11.420621    -3.335205     2.620352 H          1 UNL1 0.000
    39 H     -10.200568    -1.214629     2.324561 H          1 UNL1 0.000
    40 H      -3.876647     0.615354     5.086021 H          1 UNL1 0.000
    41 H      -1.415504     0.579752     5.138006 H          1 UNL1 0.000
    42 H      -3.823682     0.362086     0.796830 H          1 UNL1 0.000
    43 H       0.755129     0.520821     3.934106 H          1 UNL1 0.000
    44 H       2.020010     0.490717     1.833577 H          1 UNL1 0.000
    45 H      -1.650957     0.393117    -0.405017 H          1 UNL1 0.000
    46 C       1.033678     0.453767    -0.690315 C          1 UNL1 0.000
    47 C       1.135612     1.621014    -1.465937 C          1 UNL1 0.000
    48 C       1.858908     1.623764    -2.661955 C          1 UNL1 0.000
    49 C       2.492601     0.458252    -3.082952 C          1 UNL1 0.000
    50 C       2.388479    -0.714368    -2.340816 C          1 UNL1 0.000
    51 C       1.670507    -0.712560    -1.143085 C          1 UNL1 0.000
    52 O       3.158809     0.428290    -4.276951 O          1 UNL1 0.000
    53 C       4.496717     0.895443    -4.106329 C          1 UNL1 0.000
    54 H       0.645952     2.536367    -1.139266 H          1 UNL1 0.000
    55 H       1.916345     2.526691    -3.262311 H          1 UNL1 0.000
    56 H       2.859200    -1.626846    -2.693949 H          1 UNL1 0.000
    57 H       1.594929    -1.632688    -0.567443 H          1 UNL1 0.000
    58 H       5.038407     0.704112    -5.037692 H          1 UNL1 0.000
    59 H       5.012587     0.360569    -3.300649 H          1 UNL1 0.000
    60 H       4.511499     1.974361    -3.919488 H          1 UNL1 0.000
@<TRIPOS>BOND
     1      1      2   1
     2      1      3   1
     3      3      4   2
     4      4      5   1
     5      5      6   2
     6      6      7   1
     7      7      8   2
     8      8      3   1
     9      2      9   2
    10      9     10   1
    11     10     11   2
    12     11     12   1
    13     12     13   2
    14     13      2   1
    15     11     14   1
    16     14     15   2
    17     15     16   1
    18     16     17   2
    19     17     12   1
    20     18     19   2
    21     19     20   1
    22     20     21   2
    23     21     22   1
    24     22     23   2
    25     23     18   1
    26     21     24   1
    27     24     25   2
    28     25     26   1
    29     26     27   2
    30     27     22   1
    31      1     18   1
    32      4     28   1
    33      5     29   1
    34      6     30   1
    35      7     31   1
    36      8     32   1
    37      9     33   1
    38     10     34   1
    39     13     35   1
    40     14     36   1
    41     15     37   1
    42     16     38   1
    43     17     39   1
    44     19     40   1
    45     20     41   1
    46     23     42   1
    47     24     43   1
    48     25     44   1
    49     27     45   1
    50     46     47   2
    51     47     48   1
    52     48     49   2
    53     49     50   1
    54     50     51   2
    55     51     46   1
    56     52     53   1
    57     49     52   1
    58     47     54   1
    59     48     55   1
    60     50     56   1
    61     51     57   1
    62     53     58   1
    63     53     59   1
    64     53     60   1
    65     26     46   1
