# Produced with molli package
@<TRIPOS>MOLECULE
F_5_S
61 66 0 0 0
SMALL
USER_CHARGES

@<TRIPOS>ATOM
     1 N      -5.381350     0.453313     3.009704 N          1 UNL1 0.000
     2 C      -6.091360    -0.813030     3.070146 C          1 UNL1 0.000
     3 C      -6.018741     1.752613     2.924470 C          1 UNL1 0.000
     4 C      -7.250378     1.952161     2.278257 C          1 UNL1 0.000
     5 C      -7.868487     3.209248     2.254419 C          1 UNL1 0.000
     6 C      -7.244551     4.309186     2.834626 C          1 UNL1 0.000
     7 C      -5.997901     4.155875     3.428232 C          1 UNL1 0.000
     8 C      -5.395235     2.894529     3.471755 C          1 UNL1 0.000
     9 C      -5.432163    -2.024614     2.780165 C          1 UNL1 0.000
    10 C      -6.099928    -3.255018     2.794408 C          1 UNL1 0.000
    11 C      -7.467259    -3.320108     3.074184 C          1 UNL1 0.000
    12 C      -8.154718    -2.131667     3.394368 C          1 UNL1 0.000
    13 C      -7.447828    -0.910154     3.431963 C          1 UNL1 0.000
    14 C      -8.165030    -4.538520     3.033782 C          1 UNL1 0.000
    15 C      -9.537353    -4.580581     3.279805 C          1 UNL1 0.000
    16 C     -10.223152    -3.408413     3.582442 C          1 UNL1 0.000
    17 C      -9.535385    -2.194527     3.650459 C          1 UNL1 0.000
    18 C      -3.940660     0.427829     3.005766 C          1 UNL1 0.000
    19 C      -3.235185     0.258423     4.202834 C          1 UNL1 0.000
    20 C      -1.840308     0.244949     4.197981 C          1 UNL1 0.000
    21 C      -1.126994     0.362054     2.994537 C          1 UNL1 0.000
    22 C      -1.828572     0.508365     1.776025 C          1 UNL1 0.000
    23 C      -3.232850     0.561489     1.799368 C          1 UNL1 0.000
    24 C       0.273197     0.322871     2.977990 C          1 UNL1 0.000
    25 C       0.974495     0.388119     1.771559 C          1 UNL1 0.000
    26 C       0.297845     0.501022     0.549948 C          1 UNL1 0.000
    27 C      -1.104826     0.578764     0.569677 C          1 UNL1 0.000
    28 H      -7.747521     1.132665     1.766551 H          1 UNL1 0.000
    29 H      -8.836530     3.326971     1.774289 H          1 UNL1 0.000
    30 H      -7.722072     5.285086     2.813775 H          1 UNL1 0.000
    31 H      -5.490330     5.012131     3.864854 H          1 UNL1 0.000
    32 H      -4.427123     2.818535     3.959848 H          1 UNL1 0.000
    33 H      -4.376693    -2.039471     2.520416 H          1 UNL1 0.000
    34 H      -5.539707    -4.157399     2.560431 H          1 UNL1 0.000
    35 H      -7.987612    -0.023745     3.753277 H          1 UNL1 0.000
    36 H      -7.644095    -5.463454     2.796528 H          1 UNL1 0.000
    37 H     -10.069629    -5.526822     3.229027 H          1 UNL1 0.000
    38 H     -11.294693    -3.436598     3.762295 H          1 UNL1 0.000
    39 H     -10.091784    -1.289437     3.884018 H          1 UNL1 0.000
    40 H      -3.776749     0.154424     5.139602 H          1 UNL1 0.000
    41 H      -1.313923     0.129628     5.142707 H          1 UNL1 0.000
    42 H      -3.793551     0.679761     0.874495 H          1 UNL1 0.000
    43 H       0.833429     0.228650     3.905559 H          1 UNL1 0.000
    44 H       2.061900     0.346420     1.790826 H          1 UNL1 0.000
    45 H      -1.643463     0.666520    -0.373057 H          1 UNL1 0.000
    46 C       1.044437     0.507628    -0.714497 C          1 UNL1 0.000
    47 C       1.083574     1.644621    -1.531371 C          1 UNL1 0.000
    48 C       1.813002     1.641881    -2.726281 C          1 UNL1 0.000
    49 C       2.515449     0.499361    -3.133756 C          1 UNL1 0.000
    50 C       2.486566    -0.638523    -2.322675 C          1 UNL1 0.000
    51 C       1.754630    -0.631367    -1.128251 C          1 UNL1 0.000
    52 C       3.275009     0.555725    -4.419705 C          1 UNL1 0.000
    53 C       3.942610    -0.685805    -4.953190 C          1 UNL1 0.000
    54 O       3.371563     1.625026    -5.021980 O          1 UNL1 0.000
    55 H       0.556400     2.549947    -1.235726 H          1 UNL1 0.000
    56 H       1.832451     2.543493    -3.336817 H          1 UNL1 0.000
    57 H       3.024956    -1.544094    -2.583663 H          1 UNL1 0.000
    58 H       1.736925    -1.531395    -0.514852 H          1 UNL1 0.000
    59 H       4.006335    -0.609664    -6.043580 H          1 UNL1 0.000
    60 H       3.367091    -1.587721    -4.736554 H          1 UNL1 0.000
    61 H       4.950910    -0.766190    -4.539478 H          1 UNL1 0.000
@<TRIPOS>BOND
     1      1      2   1
     2      1      3   1
     3      3      4   2
     4      4      5   1
     5      5      6   2
     6      6      7   1
     7      7      8   2
     8      8      3   1
     9      2      9   2
    10      9     10   1
    11     10     11   2
    12     11     12   1
    13     12     13   2
    14     13      2   1
    15     11     14   1
    16     14     15   2
    17     15     16   1
    18     16     17   2
    19     17     12   1
    20     18     19   2
    21     19     20   1
    22     20     21   2
    23     21     22   1
    24     22     23   2
    25     23     18   1
    26     21     24   1
    27     24     25   2
    28     25     26   1
    29     26     27   2
    30     27     22   1
    31      1     18   1
    32      4     28   1
    33      5     29   1
    34      6     30   1
    35      7     31   1
    36      8     32   1
    37      9     33   1
    38     10     34   1
    39     13     35   1
    40     14     36   1
    41     15     37   1
    42     16     38   1
    43     17     39   1
    44     19     40   1
    45     20     41   1
    46     23     42   1
    47     24     43   1
    48     25     44   1
    49     27     45   1
    50     46     47   2
    51     47     48   1
    52     48     49   2
    53     49     50   1
    54     50     51   2
    55     51     46   1
    56     49     52   1
    57     52     53   1
    58     52     54   2
    59     47     55   1
    60     48     56   1
    61     50     57   1
    62     51     58   1
    63     53     59   1
    64     53     60   1
    65     53     61   1
    66     26     46   1
