# Produced with molli package
@<TRIPOS>MOLECULE
F_5_T
59 64 0 0 0
SMALL
USER_CHARGES

@<TRIPOS>ATOM
     1 N      -5.442602     0.483145     3.069275 N          1 UNL1 0.000
     2 C      -6.142502    -0.788487     3.097436 C          1 UNL1 0.000
     3 C      -6.090161     1.772140     2.940220 C          1 UNL1 0.000
     4 C      -7.283297     1.949041     2.219301 C          1 UNL1 0.000
     5 C      -7.904863     3.201185     2.133381 C          1 UNL1 0.000
     6 C      -7.325290     4.314749     2.733905 C          1 UNL1 0.000
     7 C      -6.120235     4.179583     3.412795 C          1 UNL1 0.000
     8 C      -5.512057     2.924368     3.513338 C          1 UNL1 0.000
     9 C      -5.471776    -1.990306     2.798159 C          1 UNL1 0.000
    10 C      -6.132732    -3.224045     2.780868 C          1 UNL1 0.000
    11 C      -7.503229    -3.299845     3.046149 C          1 UNL1 0.000
    12 C      -8.200769    -2.122302     3.378209 C          1 UNL1 0.000
    13 C      -7.504239    -0.895315     3.437682 C          1 UNL1 0.000
    14 C      -8.191061    -4.523272     2.980021 C          1 UNL1 0.000
    15 C      -9.564449    -4.578681     3.218963 C          1 UNL1 0.000
    16 C     -10.259943    -3.417231     3.537911 C          1 UNL1 0.000
    17 C      -9.582813    -2.198276     3.626640 C          1 UNL1 0.000
    18 C      -4.002687     0.471345     3.083575 C          1 UNL1 0.000
    19 C      -3.308437     0.313955     4.288510 C          1 UNL1 0.000
    20 C      -1.913227     0.296906     4.295763 C          1 UNL1 0.000
    21 C      -1.189446     0.398350     3.096857 C          1 UNL1 0.000
    22 C      -1.881769     0.537057     1.872174 C          1 UNL1 0.000
    23 C      -3.284571     0.594628     1.882732 C          1 UNL1 0.000
    24 C       0.210808     0.349546     3.088946 C          1 UNL1 0.000
    25 C       0.918970     0.401637     1.885767 C          1 UNL1 0.000
    26 C       0.248943     0.512044     0.660498 C          1 UNL1 0.000
    27 C      -1.152414     0.594537     0.670161 C          1 UNL1 0.000
    28 H      -7.741818     1.115357     1.694401 H          1 UNL1 0.000
    29 H      -8.839350     3.304657     1.588020 H          1 UNL1 0.000
    30 H      -7.805038     5.287257     2.663671 H          1 UNL1 0.000
    31 H      -5.649077     5.046100     3.869466 H          1 UNL1 0.000
    32 H      -4.577093     2.859448     4.063841 H          1 UNL1 0.000
    33 H      -4.412529    -1.994947     2.552934 H          1 UNL1 0.000
    34 H      -5.565248    -4.118461     2.537040 H          1 UNL1 0.000
    35 H      -8.051560    -0.013110     3.757018 H          1 UNL1 0.000
    36 H      -7.662198    -5.439661     2.730371 H          1 UNL1 0.000
    37 H     -10.088874    -5.528351     3.150825 H          1 UNL1 0.000
    38 H     -11.331740    -3.456653     3.714993 H          1 UNL1 0.000
    39 H     -10.146390    -1.301849     3.872821 H          1 UNL1 0.000
    40 H      -3.858273     0.217600     5.221155 H          1 UNL1 0.000
    41 H      -1.394592     0.188452     5.245536 H          1 UNL1 0.000
    42 H      -3.836752     0.702870     0.951563 H          1 UNL1 0.000
    43 H       0.765411     0.257546     4.019941 H          1 UNL1 0.000
    44 H       2.005989     0.351858     1.908051 H          1 UNL1 0.000
    45 H      -1.682957     0.677555    -0.277467 H          1 UNL1 0.000
    46 C       1.001003     0.518341    -0.599007 C          1 UNL1 0.000
    47 C       1.102800     1.679609    -1.376879 C          1 UNL1 0.000
    48 C       1.845816     1.685628    -2.562287 C          1 UNL1 0.000
    49 C       2.502053     0.528427    -2.994668 C          1 UNL1 0.000
    50 C       2.389262    -0.639313    -2.233335 C          1 UNL1 0.000
    51 C       1.650008    -0.642034    -1.047267 C          1 UNL1 0.000
    52 C       3.300956     0.520105    -4.264010 C          1 UNL1 0.000
    53 H       0.612369     2.595684    -1.054108 H          1 UNL1 0.000
    54 H       1.912084     2.604793    -3.139825 H          1 UNL1 0.000
    55 H       2.879455    -1.554941    -2.556508 H          1 UNL1 0.000
    56 H       1.578326    -1.562419    -0.470967 H          1 UNL1 0.000
    57 H       2.805429    -0.100855    -5.016847 H          1 UNL1 0.000
    58 H       4.305169     0.125466    -4.076684 H          1 UNL1 0.000
    59 H       3.414122     1.529292    -4.673339 H          1 UNL1 0.000
@<TRIPOS>BOND
     1      1      2   1
     2      1      3   1
     3      3      4   2
     4      4      5   1
     5      5      6   2
     6      6      7   1
     7      7      8   2
     8      8      3   1
     9      2      9   2
    10      9     10   1
    11     10     11   2
    12     11     12   1
    13     12     13   2
    14     13      2   1
    15     11     14   1
    16     14     15   2
    17     15     16   1
    18     16     17   2
    19     17     12   1
    20     18     19   2
    21     19     20   1
    22     20     21   2
    23     21     22   1
    24     22     23   2
    25     23     18   1
    26     21     24   1
    27     24     25   2
    28     25     26   1
    29     26     27   2
    30     27     22   1
    31      1     18   1
    32      4     28   1
    33      5     29   1
    34      6     30   1
    35      7     31   1
    36      8     32   1
    37      9     33   1
    38     10     34   1
    39     13     35   1
    40     14     36   1
    41     15     37   1
    42     16     38   1
    43     17     39   1
    44     19     40   1
    45     20     41   1
    46     23     42   1
    47     24     43   1
    48     25     44   1
    49     27     45   1
    50     46     47   2
    51     47     48   1
    52     48     49   2
    53     49     50   1
    54     50     51   2
    55     51     46   1
    56     49     52   1
    57     47     53   1
    58     48     54   1
    59     50     55   1
    60     51     56   1
    61     52     57   1
    62     52     58   1
    63     52     59   1
    64     26     46   1
