# Produced with molli package
@<TRIPOS>MOLECULE
F_5_O
55 60 0 0 0
SMALL
USER_CHARGES

@<TRIPOS>ATOM
     1 N      -5.441750     0.456013     2.961158 N          1 UNL1 0.000
     2 C      -6.134222    -0.823418     2.960964 C          1 UNL1 0.000
     3 C      -6.066723     1.764181     3.082000 C          1 UNL1 0.000
     4 C      -7.329741     1.969314     3.659995 C          1 UNL1 0.000
     5 C      -7.908683     3.245607     3.731330 C          1 UNL1 0.000
     6 C      -7.212785     4.362138     3.280318 C          1 UNL1 0.000
     7 C      -5.935907     4.204726     2.761391 C          1 UNL1 0.000
     8 C      -5.378056     2.925854     2.658741 C          1 UNL1 0.000
     9 C      -5.436876    -2.017450     3.246023 C          1 UNL1 0.000
    10 C      -6.077450    -3.259518     3.316322 C          1 UNL1 0.000
    11 C      -7.455635    -3.358459     3.127762 C          1 UNL1 0.000
    12 C      -8.183330    -2.195191     2.798997 C          1 UNL1 0.000
    13 C      -7.502055    -0.963089     2.668095 C          1 UNL1 0.000
    14 C      -8.123416    -4.585677     3.267147 C          1 UNL1 0.000
    15 C      -9.506579    -4.663483     3.113248 C          1 UNL1 0.000
    16 C     -10.233122    -3.518118     2.801731 C          1 UNL1 0.000
    17 C      -9.575359    -2.296649     2.633399 C          1 UNL1 0.000
    18 C      -3.999189     0.434381     2.970476 C          1 UNL1 0.000
    19 C      -3.306355     0.510077     4.186207 C          1 UNL1 0.000
    20 C      -1.912225     0.503063     4.200414 C          1 UNL1 0.000
    21 C      -1.187162     0.453775     3.000278 C          1 UNL1 0.000
    22 C      -1.878293     0.395354     1.767269 C          1 UNL1 0.000
    23 C      -3.281571     0.362695     1.766795 C          1 UNL1 0.000
    24 C       0.213801     0.477975     3.000923 C          1 UNL1 0.000
    25 C       0.926437     0.463761     1.799570 C          1 UNL1 0.000
    26 C       0.257842     0.424914     0.568917 C          1 UNL1 0.000
    27 C      -1.145571     0.388826     0.567987 C          1 UNL1 0.000
    28 H      -7.886838     1.148415     4.099398 H          1 UNL1 0.000
    29 H      -8.902182     3.364957     4.155969 H          1 UNL1 0.000
    30 H      -7.655952     5.351830     3.347868 H          1 UNL1 0.000
    31 H      -5.365590     5.069700     2.432400 H          1 UNL1 0.000
    32 H      -4.378996     2.860276     2.235064 H          1 UNL1 0.000
    33 H      -4.367239    -2.011370     3.438187 H          1 UNL1 0.000
    34 H      -5.484454    -4.141734     3.547762 H          1 UNL1 0.000
    35 H      -8.074837    -0.104720     2.328909 H          1 UNL1 0.000
    36 H      -7.568860    -5.489160     3.512662 H          1 UNL1 0.000
    37 H     -10.015024    -5.615234     3.242644 H          1 UNL1 0.000
    38 H     -11.313150    -3.573632     2.694230 H          1 UNL1 0.000
    39 H     -10.164896    -1.413381     2.396492 H          1 UNL1 0.000
    40 H      -3.859374     0.565686     5.120481 H          1 UNL1 0.000
    41 H      -1.396841     0.552616     5.156693 H          1 UNL1 0.000
    42 H      -3.832214     0.316333     0.829826 H          1 UNL1 0.000
    43 H       0.764576     0.524638     3.937619 H          1 UNL1 0.000
    44 H       2.013432     0.506628     1.825977 H          1 UNL1 0.000
    45 H      -1.669119     0.372271    -0.387064 H          1 UNL1 0.000
    46 C       1.007583     0.430840    -0.687078 C          1 UNL1 0.000
    47 N       1.078577     1.624557    -1.324634 N          1 UNL1 0.000
    48 C       1.785557     1.670792    -2.474639 C          1 UNL1 0.000
    49 C       2.424439     0.575898    -3.031751 C          1 UNL1 0.000
    50 C       2.334321    -0.642972    -2.370749 C          1 UNL1 0.000
    51 C       1.618354    -0.719972    -1.179262 C          1 UNL1 0.000
    52 H       1.827608     2.646021    -2.951285 H          1 UNL1 0.000
    53 H       2.978549     0.671491    -3.958630 H          1 UNL1 0.000
    54 H       2.818126    -1.526351    -2.777019 H          1 UNL1 0.000
    55 H       1.535825    -1.661142    -0.645492 H          1 UNL1 0.000
@<TRIPOS>BOND
     1      1      2   1
     2      1      3   1
     3      3      4   2
     4      4      5   1
     5      5      6   2
     6      6      7   1
     7      7      8   2
     8      8      3   1
     9      2      9   2
    10      9     10   1
    11     10     11   2
    12     11     12   1
    13     12     13   2
    14     13      2   1
    15     11     14   1
    16     14     15   2
    17     15     16   1
    18     16     17   2
    19     17     12   1
    20     18     19   2
    21     19     20   1
    22     20     21   2
    23     21     22   1
    24     22     23   2
    25     23     18   1
    26     21     24   1
    27     24     25   2
    28     25     26   1
    29     26     27   2
    30     27     22   1
    31      1     18   1
    32      4     28   1
    33      5     29   1
    34      6     30   1
    35      7     31   1
    36      8     32   1
    37      9     33   1
    38     10     34   1
    39     13     35   1
    40     14     36   1
    41     15     37   1
    42     16     38   1
    43     17     39   1
    44     19     40   1
    45     20     41   1
    46     23     42   1
    47     24     43   1
    48     25     44   1
    49     27     45   1
    50     46     47   2
    51     47     48   1
    52     48     49   2
    53     49     50   1
    54     50     51   2
    55     51     46   1
    56     48     52   1
    57     49     53   1
    58     50     54   1
    59     51     55   1
    60     26     46   1
