# Produced with molli package
@<TRIPOS>MOLECULE
F_5_M
57 62 0 0 0
SMALL
USER_CHARGES

@<TRIPOS>ATOM
     1 N      -5.405935     0.529850     2.960990 N          1 UNL1 0.000
     2 C      -6.114734    -0.738714     3.018138 C          1 UNL1 0.000
     3 C      -6.038046     1.836077     2.890805 C          1 UNL1 0.000
     4 C      -7.317671     2.038217     2.346201 C          1 UNL1 0.000
     5 C      -7.931576     3.298413     2.357386 C          1 UNL1 0.000
     6 C      -7.254052     4.404913     2.857446 C          1 UNL1 0.000
     7 C      -5.958150     4.254471     3.332587 C          1 UNL1 0.000
     8 C      -5.362153     2.988546     3.349779 C          1 UNL1 0.000
     9 C      -5.461142    -1.945624     2.695622 C          1 UNL1 0.000
    10 C      -6.132378    -3.174443     2.682427 C          1 UNL1 0.000
    11 C      -7.498984    -3.241746     2.963992 C          1 UNL1 0.000
    12 C      -8.177274    -2.061550     3.329437 C          1 UNL1 0.000
    13 C      -7.463270    -0.845920     3.403878 C          1 UNL1 0.000
    14 C      -8.205536    -4.452806     2.879092 C          1 UNL1 0.000
    15 C      -9.578578    -4.493268     3.121504 C          1 UNL1 0.000
    16 C     -10.255284    -3.328460     3.469663 C          1 UNL1 0.000
    17 C      -9.557761    -2.123956     3.586417 C          1 UNL1 0.000
    18 C      -3.964722     0.496170     2.951313 C          1 UNL1 0.000
    19 C      -3.256359     0.381362     4.153285 C          1 UNL1 0.000
    20 C      -1.861561     0.376748     4.146513 C          1 UNL1 0.000
    21 C      -1.150936     0.451626     2.938304 C          1 UNL1 0.000
    22 C      -1.855394     0.541561     1.715556 C          1 UNL1 0.000
    23 C      -3.260121     0.580692     1.738470 C          1 UNL1 0.000
    24 C       0.249770     0.431363     2.922581 C          1 UNL1 0.000
    25 C       0.950037     0.472188     1.714892 C          1 UNL1 0.000
    26 C       0.270382     0.538917     0.492077 C          1 UNL1 0.000
    27 C      -1.133202     0.582514     0.507289 C          1 UNL1 0.000
    28 H      -7.863888     1.220391     1.885464 H          1 UNL1 0.000
    29 H      -8.939448     3.412132     1.966358 H          1 UNL1 0.000
    30 H      -7.727797     5.382750     2.863246 H          1 UNL1 0.000
    31 H      -5.405880     5.116027     3.698866 H          1 UNL1 0.000
    32 H      -4.352349     2.922827     3.745909 H          1 UNL1 0.000
    33 H      -4.407895    -1.958655     2.427450 H          1 UNL1 0.000
    34 H      -5.576833    -4.071850     2.419876 H          1 UNL1 0.000
    35 H      -7.994054     0.028299     3.769618 H          1 UNL1 0.000
    36 H      -7.691792    -5.371747     2.605645 H          1 UNL1 0.000
    37 H     -10.118752    -5.432069     3.031252 H          1 UNL1 0.000
    38 H     -11.327572    -3.354624     3.645354 H          1 UNL1 0.000
    39 H     -10.107462    -1.224012     3.853299 H          1 UNL1 0.000
    40 H      -3.795963     0.318468     5.094847 H          1 UNL1 0.000
    41 H      -1.333048     0.308449     5.094640 H          1 UNL1 0.000
    42 H      -3.823440     0.657755     0.810857 H          1 UNL1 0.000
    43 H       0.811309     0.378152     3.852665 H          1 UNL1 0.000
    44 H       2.038102     0.452873     1.733939 H          1 UNL1 0.000
    45 H      -1.671597     0.632959    -0.438203 H          1 UNL1 0.000
    46 C       1.019745     0.557897    -0.768318 C          1 UNL1 0.000
    47 C       1.149214     1.740896    -1.510951 C          1 UNL1 0.000
    48 C       1.899753     1.766690    -2.691434 C          1 UNL1 0.000
    49 C       2.527953     0.604931    -3.149455 C          1 UNL1 0.000
    50 C       2.397323    -0.582791    -2.424961 C          1 UNL1 0.000
    51 C       1.649820    -0.603674    -1.243021 C          1 UNL1 0.000
    52 C       3.308889     0.633004    -4.352019 C          1 UNL1 0.000
    53 N       3.944088     0.655655    -5.322387 N          1 UNL1 0.000
    54 H       0.676605     2.657227    -1.160860 H          1 UNL1 0.000
    55 H       1.994569     2.700522    -3.242548 H          1 UNL1 0.000
    56 H       2.877944    -1.496950    -2.768746 H          1 UNL1 0.000
    57 H       1.560778    -1.536201    -0.687592 H          1 UNL1 0.000
@<TRIPOS>BOND
     1      1      2   1
     2      1      3   1
     3      3      4   2
     4      4      5   1
     5      5      6   2
     6      6      7   1
     7      7      8   2
     8      8      3   1
     9      2      9   2
    10      9     10   1
    11     10     11   2
    12     11     12   1
    13     12     13   2
    14     13      2   1
    15     11     14   1
    16     14     15   2
    17     15     16   1
    18     16     17   2
    19     17     12   1
    20     18     19   2
    21     19     20   1
    22     20     21   2
    23     21     22   1
    24     22     23   2
    25     23     18   1
    26     21     24   1
    27     24     25   2
    28     25     26   1
    29     26     27   2
    30     27     22   1
    31      1     18   1
    32      4     28   1
    33      5     29   1
    34      6     30   1
    35      7     31   1
    36      8     32   1
    37      9     33   1
    38     10     34   1
    39     13     35   1
    40     14     36   1
    41     15     37   1
    42     16     38   1
    43     17     39   1
    44     19     40   1
    45     20     41   1
    46     23     42   1
    47     24     43   1
    48     25     44   1
    49     27     45   1
    50     46     47   2
    51     47     48   1
    52     48     49   2
    53     49     50   1
    54     50     51   2
    55     51     46   1
    56     52     53   3
    57     49     52   1
    58     47     54   1
    59     48     55   1
    60     50     56   1
    61     51     57   1
    62     26     46   1
