# Produced with molli package
@<TRIPOS>MOLECULE
F_5_R
57 62 0 0 0
SMALL
USER_CHARGES

@<TRIPOS>ATOM
     1 N      -5.390777     0.536735     2.873845 N          1 UNL1 0.000
     2 C      -6.102321    -0.729824     2.885437 C          1 UNL1 0.000
     3 C      -6.011483     1.839650     3.034716 C          1 UNL1 0.000
     4 C      -7.228208     2.029249     3.711266 C          1 UNL1 0.000
     5 C      -7.808348     3.299233     3.834336 C          1 UNL1 0.000
     6 C      -7.160687     4.420217     3.325330 C          1 UNL1 0.000
     7 C      -5.931244     4.273446     2.696454 C          1 UNL1 0.000
     8 C      -5.369138     3.000961     2.550387 C          1 UNL1 0.000
     9 C      -5.436724    -1.930789     3.204612 C          1 UNL1 0.000
    10 C      -6.110892    -3.154269     3.288266 C          1 UNL1 0.000
    11 C      -7.488528    -3.222959     3.070793 C          1 UNL1 0.000
    12 C      -8.180960    -2.050079     2.705250 C          1 UNL1 0.000
    13 C      -7.469808    -0.836997     2.573034 C          1 UNL1 0.000
    14 C      -8.190164    -4.430615     3.217773 C          1 UNL1 0.000
    15 C      -9.570946    -4.477475     3.028713 C          1 UNL1 0.000
    16 C     -10.261062    -3.321977     2.675664 C          1 UNL1 0.000
    17 C      -9.570380    -2.119550     2.504468 C          1 UNL1 0.000
    18 C      -3.949861     0.504901     2.874642 C          1 UNL1 0.000
    19 C      -3.250684     0.591732     4.085806 C          1 UNL1 0.000
    20 C      -1.857568     0.549337     4.096686 C          1 UNL1 0.000
    21 C      -1.138356     0.453074     2.896538 C          1 UNL1 0.000
    22 C      -1.832629     0.393966     1.665401 C          1 UNL1 0.000
    23 C      -3.237468     0.398096     1.670266 C          1 UNL1 0.000
    24 C       0.261644     0.426723     2.897645 C          1 UNL1 0.000
    25 C       0.972648     0.359530     1.697724 C          1 UNL1 0.000
    26 C       0.304729     0.323980     0.465280 C          1 UNL1 0.000
    27 C      -1.099657     0.343255     0.465515 C          1 UNL1 0.000
    28 H      -7.741244     1.196080     4.182281 H          1 UNL1 0.000
    29 H      -8.763256     3.410144     4.341671 H          1 UNL1 0.000
    30 H      -7.605424     5.406086     3.430071 H          1 UNL1 0.000
    31 H      -5.403009     5.143749     2.315549 H          1 UNL1 0.000
    32 H      -4.410587     2.935013     2.041812 H          1 UNL1 0.000
    33 H      -4.371366    -1.942283     3.418979 H          1 UNL1 0.000
    34 H      -5.546574    -4.046000     3.551315 H          1 UNL1 0.000
    35 H      -8.013562     0.037297     2.224980 H          1 UNL1 0.000
    36 H      -7.665277    -5.342041     3.495370 H          1 UNL1 0.000
    37 H     -10.105898    -5.414083     3.162375 H          1 UNL1 0.000
    38 H     -11.338699    -3.353971     2.537808 H          1 UNL1 0.000
    39 H     -10.130920    -1.227254     2.234646 H          1 UNL1 0.000
    40 H      -3.798587     0.676205     5.021037 H          1 UNL1 0.000
    41 H      -1.338696     0.602672     5.050938 H          1 UNL1 0.000
    42 H      -3.792328     0.344402     0.736155 H          1 UNL1 0.000
    43 H       0.813651     0.471243     3.833926 H          1 UNL1 0.000
    44 H       2.060412     0.362227     1.730462 H          1 UNL1 0.000
    45 H      -1.625867     0.327683    -0.488284 H          1 UNL1 0.000
    46 C       1.060789     0.279518    -0.788408 C          1 UNL1 0.000
    47 N       0.971450     1.383966    -1.573851 N          1 UNL1 0.000
    48 C       1.712361     1.411095    -2.710147 C          1 UNL1 0.000
    49 C       2.534033     0.366614    -3.099008 C          1 UNL1 0.000
    50 C       2.605220    -0.776070    -2.302482 C          1 UNL1 0.000
    51 C       1.856078    -0.816640    -1.126949 C          1 UNL1 0.000
    52 N       3.319148     0.478156    -4.315930 N          1 UNL1 0.000
    53 O       2.975791     1.331689    -5.145748 O          1 UNL1 0.000
    54 O       4.284334    -0.286658    -4.445738 O          1 UNL1 0.000
    55 H       1.620085     2.328003    -3.287387 H          1 UNL1 0.000
    56 H       3.230039    -1.622881    -2.575080 H          1 UNL1 0.000
    57 H       1.893854    -1.690397    -0.482410 H          1 UNL1 0.000
@<TRIPOS>BOND
     1      1      2   1
     2      1      3   1
     3      3      4   2
     4      4      5   1
     5      5      6   2
     6      6      7   1
     7      7      8   2
     8      8      3   1
     9      2      9   2
    10      9     10   1
    11     10     11   2
    12     11     12   1
    13     12     13   2
    14     13      2   1
    15     11     14   1
    16     14     15   2
    17     15     16   1
    18     16     17   2
    19     17     12   1
    20     18     19   2
    21     19     20   1
    22     20     21   2
    23     21     22   1
    24     22     23   2
    25     23     18   1
    26     21     24   1
    27     24     25   2
    28     25     26   1
    29     26     27   2
    30     27     22   1
    31      1     18   1
    32      4     28   1
    33      5     29   1
    34      6     30   1
    35      7     31   1
    36      8     32   1
    37      9     33   1
    38     10     34   1
    39     13     35   1
    40     14     36   1
    41     15     37   1
    42     16     38   1
    43     17     39   1
    44     19     40   1
    45     20     41   1
    46     23     42   1
    47     24     43   1
    48     25     44   1
    49     27     45   1
    50     46     47   2
    51     47     48   1
    52     48     49   2
    53     49     50   1
    54     50     51   2
    55     51     46   1
    56     52     53   2
    57     52     54   1
    58     49     52   1
    59     48     55   1
    60     50     56   1
    61     51     57   1
    62     26     46   1
