# Produced with molli package
@<TRIPOS>MOLECULE
F_5_Q
54 59 0 0 0
SMALL
USER_CHARGES

@<TRIPOS>ATOM
     1 N      -5.454158     0.506971     2.967590 N          1 UNL1 0.000
     2 C      -6.146456    -0.771820     3.008593 C          1 UNL1 0.000
     3 C      -6.101299     1.803760     2.912006 C          1 UNL1 0.000
     4 C      -7.339984     2.010568     2.282470 C          1 UNL1 0.000
     5 C      -7.968940     3.263078     2.296372 C          1 UNL1 0.000
     6 C      -7.347228     4.354779     2.893898 C          1 UNL1 0.000
     7 C      -6.091098     4.198445     3.465105 C          1 UNL1 0.000
     8 C      -5.479285     2.940618     3.473129 C          1 UNL1 0.000
     9 C      -5.455433    -1.973169     2.747796 C          1 UNL1 0.000
    10 C      -6.095778    -3.218300     2.750674 C          1 UNL1 0.000
    11 C      -7.469926    -3.309588     2.984627 C          1 UNL1 0.000
    12 C      -8.191527    -2.134381     3.270506 C          1 UNL1 0.000
    13 C      -7.511569    -0.896720     3.326407 C          1 UNL1 0.000
    14 C      -8.138380    -4.544289     2.931324 C          1 UNL1 0.000
    15 C      -9.517587    -4.613652     3.128071 C          1 UNL1 0.000
    16 C     -10.238471    -3.454095     3.393465 C          1 UNL1 0.000
    17 C      -9.579742    -2.224641     3.476346 C          1 UNL1 0.000
    18 C      -4.012567     0.494978     2.977728 C          1 UNL1 0.000
    19 C      -3.318691     0.339970     4.183906 C          1 UNL1 0.000
    20 C      -1.924469     0.320874     4.192522 C          1 UNL1 0.000
    21 C      -1.200478     0.417374     2.994245 C          1 UNL1 0.000
    22 C      -1.889661     0.556760     1.767323 C          1 UNL1 0.000
    23 C      -3.293890     0.615583     1.776383 C          1 UNL1 0.000
    24 C       0.199078     0.366055     2.993031 C          1 UNL1 0.000
    25 C       0.912711     0.410319     1.793316 C          1 UNL1 0.000
    26 C       0.248729     0.518057     0.563124 C          1 UNL1 0.000
    27 C      -1.153175     0.614487     0.568309 C          1 UNL1 0.000
    28 H      -7.835537     1.202107     1.752492 H          1 UNL1 0.000
    29 H      -8.943802     3.383994     1.831076 H          1 UNL1 0.000
    30 H      -7.832630     5.326911     2.902037 H          1 UNL1 0.000
    31 H      -5.582352     5.048879     3.911655 H          1 UNL1 0.000
    32 H      -4.502938     2.865235     3.944413 H          1 UNL1 0.000
    33 H      -4.391470    -1.971127     2.524428 H          1 UNL1 0.000
    34 H      -5.508543    -4.109667     2.544485 H          1 UNL1 0.000
    35 H      -8.081446    -0.024263     3.630215 H          1 UNL1 0.000
    36 H      -7.589334    -5.459288     2.722516 H          1 UNL1 0.000
    37 H     -10.026993    -5.571917     3.067292 H          1 UNL1 0.000
    38 H     -11.315333    -3.503609     3.533133 H          1 UNL1 0.000
    39 H     -10.163478    -1.330245     3.680364 H          1 UNL1 0.000
    40 H      -3.869792     0.247990     5.116347 H          1 UNL1 0.000
    41 H      -1.407557     0.215963     5.143590 H          1 UNL1 0.000
    42 H      -3.845339     0.724526     0.844776 H          1 UNL1 0.000
    43 H       0.748832     0.281821     3.927903 H          1 UNL1 0.000
    44 H       1.999999     0.367333     1.826470 H          1 UNL1 0.000
    45 H      -1.676531     0.715880    -0.382162 H          1 UNL1 0.000
    46 C       1.003120     0.509451    -0.690902 C          1 UNL1 0.000
    47 N       0.989642     1.652754    -1.421383 N          1 UNL1 0.000
    48 C       1.735895     1.637918    -2.551245 C          1 UNL1 0.000
    49 C       2.458966     0.527857    -2.955311 C          1 UNL1 0.000
    50 N       2.469993    -0.623429    -2.249361 N          1 UNL1 0.000
    51 C       1.729419    -0.604351    -1.113091 C          1 UNL1 0.000
    52 H       1.741897     2.556097    -3.127460 H          1 UNL1 0.000
    53 H       3.053222     0.536247    -3.861898 H          1 UNL1 0.000
    54 H       1.733531    -1.526456    -0.540870 H          1 UNL1 0.000
@<TRIPOS>BOND
     1      1      2   1
     2      1      3   1
     3      3      4   2
     4      4      5   1
     5      5      6   2
     6      6      7   1
     7      7      8   2
     8      8      3   1
     9      2      9   2
    10      9     10   1
    11     10     11   2
    12     11     12   1
    13     12     13   2
    14     13      2   1
    15     11     14   1
    16     14     15   2
    17     15     16   1
    18     16     17   2
    19     17     12   1
    20     18     19   2
    21     19     20   1
    22     20     21   2
    23     21     22   1
    24     22     23   2
    25     23     18   1
    26     21     24   1
    27     24     25   2
    28     25     26   1
    29     26     27   2
    30     27     22   1
    31      1     18   1
    32      4     28   1
    33      5     29   1
    34      6     30   1
    35      7     31   1
    36      8     32   1
    37      9     33   1
    38     10     34   1
    39     13     35   1
    40     14     36   1
    41     15     37   1
    42     16     38   1
    43     17     39   1
    44     19     40   1
    45     20     41   1
    46     23     42   1
    47     24     43   1
    48     25     44   1
    49     27     45   1
    50     46     47   2
    51     47     48   1
    52     48     49   2
    53     49     50   1
    54     50     51   2
    55     51     46   1
    56     48     52   1
    57     49     53   1
    58     51     54   1
    59     26     46   1
