# Produced with molli package
@<TRIPOS>MOLECULE
F_5_L
60 66 0 0 0
SMALL
USER_CHARGES

@<TRIPOS>ATOM
     1 N      -5.470850     0.476808     2.960193 N          1 UNL1 0.000
     2 C      -6.170718    -0.795759     2.968662 C          1 UNL1 0.000
     3 C      -6.109674     1.768383     3.128962 C          1 UNL1 0.000
     4 C      -7.282294     1.944700     3.882934 C          1 UNL1 0.000
     5 C      -7.890575     3.200669     4.005770 C          1 UNL1 0.000
     6 C      -7.313376     4.320614     3.415565 C          1 UNL1 0.000
     7 C      -6.124387     4.187436     2.709115 C          1 UNL1 0.000
     8 C      -5.533351     2.927821     2.567121 C          1 UNL1 0.000
     9 C      -5.484657    -2.000203     3.222247 C          1 UNL1 0.000
    10 C      -6.148898    -3.230186     3.297319 C          1 UNL1 0.000
    11 C      -7.535163    -3.302039     3.140052 C          1 UNL1 0.000
    12 C      -8.249666    -2.122714     2.844848 C          1 UNL1 0.000
    13 C      -7.551123    -0.903133     2.717063 C          1 UNL1 0.000
    14 C      -8.225286    -4.517373     3.278059 C          1 UNL1 0.000
    15 C      -9.613433    -4.565389     3.151348 C          1 UNL1 0.000
    16 C     -10.324193    -3.402472     2.870597 C          1 UNL1 0.000
    17 C      -9.646575    -2.192042     2.707596 C          1 UNL1 0.000
    18 C      -4.029902     0.468137     2.954260 C          1 UNL1 0.000
    19 C      -3.327442     0.567171     4.162443 C          1 UNL1 0.000
    20 C      -1.933265     0.557053     4.167744 C          1 UNL1 0.000
    21 C      -1.216140     0.483057     2.964675 C          1 UNL1 0.000
    22 C      -1.914232     0.404211     1.736683 C          1 UNL1 0.000
    23 C      -3.319280     0.373370     1.747692 C          1 UNL1 0.000
    24 C       0.184643     0.497981     2.959547 C          1 UNL1 0.000
    25 C       0.891901     0.464097     1.756415 C          1 UNL1 0.000
    26 C       0.218220     0.414749     0.529760 C          1 UNL1 0.000
    27 C      -1.185014     0.373977     0.533735 C          1 UNL1 0.000
    28 H      -7.735464     1.109406     4.409394 H          1 UNL1 0.000
    29 H      -8.811911     3.301848     4.573538 H          1 UNL1 0.000
    30 H      -7.781358     5.296112     3.516447 H          1 UNL1 0.000
    31 H      -5.651957     5.058857     2.263259 H          1 UNL1 0.000
    32 H      -4.610354     2.866801     1.996410 H          1 UNL1 0.000
    33 H      -4.410333    -2.010180     3.387017 H          1 UNL1 0.000
    34 H      -5.568517    -4.126286     3.505577 H          1 UNL1 0.000
    35 H      -8.116361    -0.022933     2.422288 H          1 UNL1 0.000
    36 H      -7.684515    -5.434935     3.499613 H          1 UNL1 0.000
    37 H     -10.138054    -5.508832     3.277155 H          1 UNL1 0.000
    38 H     -11.406931    -3.435231     2.782384 H          1 UNL1 0.000
    39 H     -10.221994    -1.293730     2.494415 H          1 UNL1 0.000
    40 H      -3.872539     0.637906     5.100379 H          1 UNL1 0.000
    41 H      -1.411492     0.620398     5.119810 H          1 UNL1 0.000
    42 H      -3.875761     0.304104     0.815653 H          1 UNL1 0.000
    43 H       0.740407     0.548740     3.893058 H          1 UNL1 0.000
    44 H       1.979717     0.492351     1.778450 H          1 UNL1 0.000
    45 H      -1.714025     0.328389    -0.417149 H          1 UNL1 0.000
    46 C       0.974460     0.425729    -0.725888 C          1 UNL1 0.000
    47 C       1.125303     1.615654    -1.452663 C          1 UNL1 0.000
    48 C       1.879522     1.671288    -2.631111 C          1 UNL1 0.000
    49 C       2.483393     0.487669    -3.065940 C          1 UNL1 0.000
    50 C       2.352967    -0.719305    -2.380364 C          1 UNL1 0.000
    51 C       1.588206    -0.748979    -1.197235 C          1 UNL1 0.000
    52 N       3.278593     0.245712    -4.163645 N          1 UNL1 0.000
    53 C       3.651540    -1.071954    -4.196792 C          1 UNL1 0.000
    54 C       3.090623    -1.695276    -3.105599 C          1 UNL1 0.000
    55 H       0.658328     2.530016    -1.088969 H          1 UNL1 0.000
    56 H       1.993388     2.603220    -3.174799 H          1 UNL1 0.000
    57 H       1.481694    -1.680590    -0.647835 H          1 UNL1 0.000
    58 H       3.547174     0.945263    -4.841600 H          1 UNL1 0.000
    59 H       4.281840    -1.450577    -4.989997 H          1 UNL1 0.000
    60 H       3.200218    -2.741008    -2.850368 H          1 UNL1 0.000
@<TRIPOS>BOND
     1      1      2   1
     2      1      3   1
     3      3      4   2
     4      4      5   1
     5      5      6   2
     6      6      7   1
     7      7      8   2
     8      8      3   1
     9      2      9   2
    10      9     10   1
    11     10     11   2
    12     11     12   1
    13     12     13   2
    14     13      2   1
    15     11     14   1
    16     14     15   2
    17     15     16   1
    18     16     17   2
    19     17     12   1
    20     18     19   2
    21     19     20   1
    22     20     21   2
    23     21     22   1
    24     22     23   2
    25     23     18   1
    26     21     24   1
    27     24     25   2
    28     25     26   1
    29     26     27   2
    30     27     22   1
    31      1     18   1
    32      4     28   1
    33      5     29   1
    34      6     30   1
    35      7     31   1
    36      8     32   1
    37      9     33   1
    38     10     34   1
    39     13     35   1
    40     14     36   1
    41     15     37   1
    42     16     38   1
    43     17     39   1
    44     19     40   1
    45     20     41   1
    46     23     42   1
    47     24     43   1
    48     25     44   1
    49     27     45   1
    50     46     47   2
    51     47     48   1
    52     48     49   2
    53     49     50   1
    54     50     51   2
    55     51     46   1
    56     49     52   1
    57     52     53   1
    58     53     54   2
    59     54     50   1
    60     47     55   1
    61     48     56   1
    62     51     57   1
    63     52     58   1
    64     53     59   1
    65     54     60   1
    66     26     46   1
