# Produced with molli package
@<TRIPOS>MOLECULE
F_5_N
53 58 0 0 0
SMALL
USER_CHARGES

@<TRIPOS>ATOM
     1 N      -5.538860     0.578770     3.004899 N          1 UNL1 0.000
     2 C      -6.227088    -0.698130     2.958273 C          1 UNL1 0.000
     3 C      -6.198834     1.861718     3.154679 C          1 UNL1 0.000
     4 C      -7.417226     2.013705     3.838322 C          1 UNL1 0.000
     5 C      -8.049310     3.259839     3.937317 C          1 UNL1 0.000
     6 C      -7.453364     4.393844     3.394527 C          1 UNL1 0.000
     7 C      -6.221975     4.284659     2.760045 C          1 UNL1 0.000
     8 C      -5.605576     3.034849     2.640928 C          1 UNL1 0.000
     9 C      -5.552513    -1.896477     3.261701 C          1 UNL1 0.000
    10 C      -6.210651    -3.131952     3.281846 C          1 UNL1 0.000
    11 C      -7.581530    -3.212093     3.018578 C          1 UNL1 0.000
    12 C      -8.280149    -2.038240     2.675308 C          1 UNL1 0.000
    13 C      -7.584683    -0.812298     2.605122 C          1 UNL1 0.000
    14 C      -8.270652    -4.433764     3.099936 C          1 UNL1 0.000
    15 C      -9.645465    -4.490036     2.868810 C          1 UNL1 0.000
    16 C     -10.341356    -3.331469     2.539713 C          1 UNL1 0.000
    17 C      -9.662812    -2.115186     2.432462 C          1 UNL1 0.000
    18 C      -4.098629     0.581759     3.024568 C          1 UNL1 0.000
    19 C      -3.414971     0.744202     4.236494 C          1 UNL1 0.000
    20 C      -2.020391     0.759930     4.261017 C          1 UNL1 0.000
    21 C      -1.284315     0.646810     3.072267 C          1 UNL1 0.000
    22 C      -1.965868     0.491532     1.841300 C          1 UNL1 0.000
    23 C      -3.369468     0.440455     1.834215 C          1 UNL1 0.000
    24 C       0.117257     0.700486     3.081591 C          1 UNL1 0.000
    25 C       0.841154     0.629267     1.889778 C          1 UNL1 0.000
    26 C       0.174179     0.487748     0.670857 C          1 UNL1 0.000
    27 C      -1.224196     0.410649     0.650534 C          1 UNL1 0.000
    28 H      -7.891087     1.165514     4.324537 H          1 UNL1 0.000
    29 H      -9.005291     3.341964     4.448056 H          1 UNL1 0.000
    30 H      -7.941055     5.361524     3.475749 H          1 UNL1 0.000
    31 H      -5.736789     5.167270     2.351385 H          1 UNL1 0.000
    32 H      -4.649906     2.992263     2.124545 H          1 UNL1 0.000
    33 H      -4.494606    -1.895898     3.512243 H          1 UNL1 0.000
    34 H      -5.642027    -4.024157     3.531747 H          1 UNL1 0.000
    35 H      -8.131902     0.066031     2.274530 H          1 UNL1 0.000
    36 H      -7.742039    -5.348002     3.358365 H          1 UNL1 0.000
    37 H     -10.171238    -5.437743     2.951793 H          1 UNL1 0.000
    38 H     -11.414342    -3.371048     2.370230 H          1 UNL1 0.000
    39 H     -10.226574    -1.220404     2.179965 H          1 UNL1 0.000
    40 H      -3.974492     0.847749     5.162920 H          1 UNL1 0.000
    41 H      -1.513951     0.876685     5.216437 H          1 UNL1 0.000
    42 H      -3.912177     0.323184     0.898703 H          1 UNL1 0.000
    43 H       0.658617     0.810824     4.018702 H          1 UNL1 0.000
    44 H       1.927002     0.682389     1.921526 H          1 UNL1 0.000
    45 H      -1.741312     0.313168    -0.302350 H          1 UNL1 0.000
    46 C       0.934179     0.450783    -0.567356 C          1 UNL1 0.000
    47 C       0.937788    -0.663825    -1.382110 C          1 UNL1 0.000
    48 S       1.923267    -0.453938    -2.766798 S          1 UNL1 0.000
    49 C       2.354551     1.130425    -2.288287 C          1 UNL1 0.000
    50 C       1.764219     1.488783    -1.096254 C          1 UNL1 0.000
    51 H       0.417757    -1.600572    -1.232578 H          1 UNL1 0.000
    52 H       3.019753     1.722033    -2.902160 H          1 UNL1 0.000
    53 H       1.912044     2.455160    -0.629079 H          1 UNL1 0.000
@<TRIPOS>BOND
     1      1      2   1
     2      1      3   1
     3      3      4   2
     4      4      5   1
     5      5      6   2
     6      6      7   1
     7      7      8   2
     8      8      3   1
     9      2      9   2
    10      9     10   1
    11     10     11   2
    12     11     12   1
    13     12     13   2
    14     13      2   1
    15     11     14   1
    16     14     15   2
    17     15     16   1
    18     16     17   2
    19     17     12   1
    20     18     19   2
    21     19     20   1
    22     20     21   2
    23     21     22   1
    24     22     23   2
    25     23     18   1
    26     21     24   1
    27     24     25   2
    28     25     26   1
    29     26     27   2
    30     27     22   1
    31      1     18   1
    32      4     28   1
    33      5     29   1
    34      6     30   1
    35      7     31   1
    36      8     32   1
    37      9     33   1
    38     10     34   1
    39     13     35   1
    40     14     36   1
    41     15     37   1
    42     16     38   1
    43     17     39   1
    44     19     40   1
    45     20     41   1
    46     23     42   1
    47     24     43   1
    48     25     44   1
    49     27     45   1
    50     46     47   2
    51     47     48   1
    52     48     49   1
    53     49     50   2
    54     50     46   1
    55     47     51   1
    56     49     52   1
    57     50     53   1
    58     26     46   1
