# Produced with molli package
@<TRIPOS>MOLECULE
F_6_Q
54 59 0 0 0
SMALL
USER_CHARGES

@<TRIPOS>ATOM
     1 N      -3.981858     0.559228     0.385916 N          1 UNL1 0.000
     2 C      -4.677486    -0.716051     0.394227 C          1 UNL1 0.000
     3 C      -4.627131     1.850743     0.540439 C          1 UNL1 0.000
     4 C      -5.848605     2.013185     1.216225 C          1 UNL1 0.000
     5 C      -6.468421     3.265602     1.319131 C          1 UNL1 0.000
     6 C      -5.857226     4.397076     0.789036 C          1 UNL1 0.000
     7 C      -4.622534     4.278854     0.164187 C          1 UNL1 0.000
     8 C      -4.018630     3.023168     0.041858 C          1 UNL1 0.000
     9 C      -4.006557    -1.906788     0.734974 C          1 UNL1 0.000
    10 C      -4.670128    -3.137549     0.797524 C          1 UNL1 0.000
    11 C      -6.038673    -3.224341     0.530864 C          1 UNL1 0.000
    12 C      -6.733457    -2.059193     0.143436 C          1 UNL1 0.000
    13 C      -6.034269    -0.837953     0.041792 C          1 UNL1 0.000
    14 C      -6.730818    -4.440733     0.645640 C          1 UNL1 0.000
    15 C      -8.102110    -4.505113     0.399892 C          1 UNL1 0.000
    16 C      -8.793027    -3.357361     0.022903 C          1 UNL1 0.000
    17 C      -8.112129    -2.145538    -0.113619 C          1 UNL1 0.000
    18 C      -2.532300     0.547760     0.332149 C          1 UNL1 0.000
    19 C      -1.829995     0.617417     1.545918 C          1 UNL1 0.000
    20 C      -0.441367     0.607227     1.553103 C          1 UNL1 0.000
    21 C       0.284255     0.557221     0.350362 C          1 UNL1 0.000
    22 C      -0.408991     0.496722    -0.895076 C          1 UNL1 0.000
    23 C      -1.830689     0.484880    -0.904487 C          1 UNL1 0.000
    24 C       0.263883     0.457374    -2.141136 C          1 UNL1 0.000
    25 C      -0.424341     0.427110    -3.354613 C          1 UNL1 0.000
    26 C      -1.809153     0.420617    -3.358837 C          1 UNL1 0.000
    27 C      -2.501101     0.441809    -2.149370 C          1 UNL1 0.000
    28 H      -6.336836     1.169396     1.695502 H          1 UNL1 0.000
    29 H      -7.427193     3.354142     1.823542 H          1 UNL1 0.000
    30 H      -6.335188     5.369276     0.873028 H          1 UNL1 0.000
    31 H      -4.124411     5.158446    -0.235378 H          1 UNL1 0.000
    32 H      -3.059878     2.980352    -0.467934 H          1 UNL1 0.000
    33 H      -2.947421    -1.904934     0.978162 H          1 UNL1 0.000
    34 H      -4.103630    -4.023333     1.077149 H          1 UNL1 0.000
    35 H      -6.576477     0.031634    -0.321255 H          1 UNL1 0.000
    36 H      -6.205268    -5.346883     0.939828 H          1 UNL1 0.000
    37 H      -8.629417    -5.449385     0.506653 H          1 UNL1 0.000
    38 H      -9.863081    -3.403368    -0.161347 H          1 UNL1 0.000
    39 H      -8.672464    -1.259383    -0.404268 H          1 UNL1 0.000
    40 H      -2.376922     0.662136     2.484854 H          1 UNL1 0.000
    41 H       0.083139     0.639074     2.506755 H          1 UNL1 0.000
    42 H       1.351844     0.446318    -2.183393 H          1 UNL1 0.000
    43 H       0.125941     0.405390    -4.291432 H          1 UNL1 0.000
    44 H      -2.355903     0.397519    -4.297509 H          1 UNL1 0.000
    45 H      -3.589361     0.436813    -2.184374 H          1 UNL1 0.000
    46 C       1.747586     0.598037     0.428305 C          1 UNL1 0.000
    47 N       2.384076    -0.595521     0.540802 N          1 UNL1 0.000
    48 C       3.734669    -0.538053     0.598905 C          1 UNL1 0.000
    49 C       4.432535     0.657104     0.552600 C          1 UNL1 0.000
    50 N       3.813152     1.853542     0.447680 N          1 UNL1 0.000
    51 C       2.459552     1.795553     0.388145 C          1 UNL1 0.000
    52 H       4.246584    -1.489912     0.682853 H          1 UNL1 0.000
    53 H       5.515241     0.683613     0.598489 H          1 UNL1 0.000
    54 H       1.953341     2.751362     0.301306 H          1 UNL1 0.000
@<TRIPOS>BOND
     1      1      2   1
     2      1      3   1
     3      3      4   2
     4      4      5   1
     5      5      6   2
     6      6      7   1
     7      7      8   2
     8      8      3   1
     9      2      9   2
    10      9     10   1
    11     10     11   2
    12     11     12   1
    13     12     13   2
    14     13      2   1
    15     11     14   1
    16     14     15   2
    17     15     16   1
    18     16     17   2
    19     17     12   1
    20     18     19   2
    21     19     20   1
    22     20     21   2
    23     21     22   1
    24     22     23   2
    25     23     18   1
    26     22     24   1
    27     24     25   2
    28     25     26   1
    29     26     27   2
    30     27     23   1
    31      1     18   1
    32      4     28   1
    33      5     29   1
    34      6     30   1
    35      7     31   1
    36      8     32   1
    37      9     33   1
    38     10     34   1
    39     13     35   1
    40     14     36   1
    41     15     37   1
    42     16     38   1
    43     17     39   1
    44     19     40   1
    45     20     41   1
    46     24     42   1
    47     25     43   1
    48     26     44   1
    49     27     45   1
    50     46     47   2
    51     47     48   1
    52     48     49   2
    53     49     50   1
    54     50     51   2
    55     51     46   1
    56     48     52   1
    57     49     53   1
    58     51     54   1
    59     21     46   1
