# Produced with molli package
@<TRIPOS>MOLECULE
F_6_P
60 65 0 0 0
SMALL
USER_CHARGES

@<TRIPOS>ATOM
     1 N      -3.947936     0.510063     0.516925 N          1 UNL1 0.000
     2 C      -4.670799    -0.749270     0.575502 C          1 UNL1 0.000
     3 C      -4.571442     1.818538     0.426412 C          1 UNL1 0.000
     4 C      -5.814234     2.024556    -0.197527 C          1 UNL1 0.000
     5 C      -6.408980     3.292055    -0.246418 C          1 UNL1 0.000
     6 C      -5.751099     4.396128     0.285303 C          1 UNL1 0.000
     7 C      -4.494684     4.235371     0.855749 C          1 UNL1 0.000
     8 C      -3.915014     2.964005     0.924770 C          1 UNL1 0.000
     9 C      -4.031167    -1.965902     0.264103 C          1 UNL1 0.000
    10 C      -4.719068    -3.184870     0.257048 C          1 UNL1 0.000
    11 C      -6.086028    -3.232955     0.539821 C          1 UNL1 0.000
    12 C      -6.751763    -2.040122     0.890745 C          1 UNL1 0.000
    13 C      -6.024217    -0.832513     0.950178 C          1 UNL1 0.000
    14 C      -6.805751    -4.436806     0.471989 C          1 UNL1 0.000
    15 C      -8.177808    -4.460354     0.721038 C          1 UNL1 0.000
    16 C      -8.841642    -3.283813     1.055298 C          1 UNL1 0.000
    17 C      -8.131932    -2.084747     1.150839 C          1 UNL1 0.000
    18 C      -2.497662     0.467628     0.466375 C          1 UNL1 0.000
    19 C      -1.796994     0.360880     1.678020 C          1 UNL1 0.000
    20 C      -0.407158     0.355109     1.685128 C          1 UNL1 0.000
    21 C       0.318903     0.432040     0.484802 C          1 UNL1 0.000
    22 C      -0.373834     0.503518    -0.761092 C          1 UNL1 0.000
    23 C      -1.794418     0.527742    -0.771860 C          1 UNL1 0.000
    24 C       0.301789     0.538025    -2.006256 C          1 UNL1 0.000
    25 C      -0.381300     0.585228    -3.221599 C          1 UNL1 0.000
    26 C      -1.765310     0.605779    -3.228697 C          1 UNL1 0.000
    27 C      -2.459790     0.580999    -2.020271 C          1 UNL1 0.000
    28 H      -6.336753     1.203768    -0.680672 H          1 UNL1 0.000
    29 H      -7.383583     3.414582    -0.711794 H          1 UNL1 0.000
    30 H      -6.208619     5.380769     0.241953 H          1 UNL1 0.000
    31 H      -3.959350     5.094852     1.250843 H          1 UNL1 0.000
    32 H      -2.934874     2.886846     1.387120 H          1 UNL1 0.000
    33 H      -2.978004    -1.993820    -0.003333 H          1 UNL1 0.000
    34 H      -4.174781    -4.091069     0.000168 H          1 UNL1 0.000
    35 H      -6.546346     0.056485     1.293679 H          1 UNL1 0.000
    36 H      -6.302046    -5.364701     0.209370 H          1 UNL1 0.000
    37 H      -8.727291    -5.395128     0.647849 H          1 UNL1 0.000
    38 H      -9.912962    -3.297285     1.237551 H          1 UNL1 0.000
    39 H      -8.671427    -1.175468     1.407614 H          1 UNL1 0.000
    40 H      -2.344941     0.303770     2.615392 H          1 UNL1 0.000
    41 H       0.117265     0.291268     2.636744 H          1 UNL1 0.000
    42 H       1.389746     0.517126    -2.044602 H          1 UNL1 0.000
    43 H       0.172705     0.601160    -4.156178 H          1 UNL1 0.000
    44 H      -2.309680     0.636303    -4.168396 H          1 UNL1 0.000
    45 H      -3.547357     0.588140    -2.060570 H          1 UNL1 0.000
    46 C       1.789839     0.415979     0.558636 C          1 UNL1 0.000
    47 C       2.524346     1.614097     0.554487 C          1 UNL1 0.000
    48 C       3.921814     1.593887     0.565050 C          1 UNL1 0.000
    49 C       4.590378     0.372619     0.595209 C          1 UNL1 0.000
    50 C       3.881419    -0.824930     0.594677 C          1 UNL1 0.000
    51 C       2.485983    -0.802926     0.588834 C          1 UNL1 0.000
    52 O       5.955444     0.314470     0.536378 O          1 UNL1 0.000
    53 C       6.526479     0.644825     1.801338 C          1 UNL1 0.000
    54 H       2.005083     2.569798     0.514866 H          1 UNL1 0.000
    55 H       4.478243     2.525402     0.524648 H          1 UNL1 0.000
    56 H       4.412692    -1.771955     0.589685 H          1 UNL1 0.000
    57 H       1.938660    -1.743145     0.580934 H          1 UNL1 0.000
    58 H       7.582088     0.357669     1.774850 H          1 UNL1 0.000
    59 H       6.048028     0.092976     2.618699 H          1 UNL1 0.000
    60 H       6.471308     1.722947     1.982758 H          1 UNL1 0.000
@<TRIPOS>BOND
     1      1      2   1
     2      1      3   1
     3      3      4   2
     4      4      5   1
     5      5      6   2
     6      6      7   1
     7      7      8   2
     8      8      3   1
     9      2      9   2
    10      9     10   1
    11     10     11   2
    12     11     12   1
    13     12     13   2
    14     13      2   1
    15     11     14   1
    16     14     15   2
    17     15     16   1
    18     16     17   2
    19     17     12   1
    20     18     19   2
    21     19     20   1
    22     20     21   2
    23     21     22   1
    24     22     23   2
    25     23     18   1
    26     22     24   1
    27     24     25   2
    28     25     26   1
    29     26     27   2
    30     27     23   1
    31      1     18   1
    32      4     28   1
    33      5     29   1
    34      6     30   1
    35      7     31   1
    36      8     32   1
    37      9     33   1
    38     10     34   1
    39     13     35   1
    40     14     36   1
    41     15     37   1
    42     16     38   1
    43     17     39   1
    44     19     40   1
    45     20     41   1
    46     24     42   1
    47     25     43   1
    48     26     44   1
    49     27     45   1
    50     46     47   2
    51     47     48   1
    52     48     49   2
    53     49     50   1
    54     50     51   2
    55     51     46   1
    56     52     53   1
    57     49     52   1
    58     47     54   1
    59     48     55   1
    60     50     56   1
    61     51     57   1
    62     53     58   1
    63     53     59   1
    64     53     60   1
    65     21     46   1
