# Produced with molli package
@<TRIPOS>MOLECULE
F_6_R
57 62 0 0 0
SMALL
USER_CHARGES

@<TRIPOS>ATOM
     1 N      -3.903095     0.430032     0.479937 N          1 UNL1 0.000
     2 C      -4.612225    -0.835776     0.563754 C          1 UNL1 0.000
     3 C      -4.548426     1.727340     0.408392 C          1 UNL1 0.000
     4 C      -5.767380     1.926858    -0.263166 C          1 UNL1 0.000
     5 C      -6.399042     3.176209    -0.276447 C          1 UNL1 0.000
     6 C      -5.799319     4.269781     0.339396 C          1 UNL1 0.000
     7 C      -4.562264     4.117983     0.954725 C          1 UNL1 0.000
     8 C      -3.945470     2.862884     0.986846 C          1 UNL1 0.000
     9 C      -3.949720    -2.056163     0.326237 C          1 UNL1 0.000
    10 C      -4.625438    -3.282685     0.349314 C          1 UNL1 0.000
    11 C      -6.003619    -3.333492     0.577634 C          1 UNL1 0.000
    12 C      -6.693006    -2.134581     0.847290 C          1 UNL1 0.000
    13 C      -5.978631    -0.919653     0.889719 C          1 UNL1 0.000
    14 C      -6.712372    -4.545316     0.531563 C          1 UNL1 0.000
    15 C      -8.095273    -4.568109     0.715765 C          1 UNL1 0.000
    16 C      -8.781607    -3.383634     0.964753 C          1 UNL1 0.000
    17 C      -8.083866    -2.176904     1.043590 C          1 UNL1 0.000
    18 C      -2.453356     0.410979     0.419135 C          1 UNL1 0.000
    19 C      -1.743127     0.273683     1.621653 C          1 UNL1 0.000
    20 C      -0.353809     0.291497     1.619507 C          1 UNL1 0.000
    21 C       0.364719     0.428417     0.418667 C          1 UNL1 0.000
    22 C      -0.335820     0.521346    -0.819655 C          1 UNL1 0.000
    23 C      -1.757765     0.520395    -0.820565 C          1 UNL1 0.000
    24 C       0.332361     0.606664    -2.066422 C          1 UNL1 0.000
    25 C      -0.359264     0.684834    -3.275310 C          1 UNL1 0.000
    26 C      -1.743615     0.682394    -3.273478 C          1 UNL1 0.000
    27 C      -2.430682     0.601796    -2.062931 C          1 UNL1 0.000
    28 H      -6.242075     1.111258    -0.802269 H          1 UNL1 0.000
    29 H      -7.357846     3.292513    -0.775045 H          1 UNL1 0.000
    30 H      -6.288127     5.240264     0.328968 H          1 UNL1 0.000
    31 H      -4.074450     4.971864     1.417524 H          1 UNL1 0.000
    32 H      -2.986441     2.785750     1.491008 H          1 UNL1 0.000
    33 H      -2.886679    -2.083297     0.099446 H          1 UNL1 0.000
    34 H      -4.062953    -4.193418     0.156256 H          1 UNL1 0.000
    35 H      -6.524677    -0.026043     1.177522 H          1 UNL1 0.000
    36 H      -6.191712    -5.479739     0.334549 H          1 UNL1 0.000
    37 H      -8.635615    -5.509246     0.657047 H          1 UNL1 0.000
    38 H      -9.860762    -3.396425     1.093183 H          1 UNL1 0.000
    39 H      -8.639565    -1.261144     1.233261 H          1 UNL1 0.000
    40 H      -2.283456     0.170591     2.559615 H          1 UNL1 0.000
    41 H       0.177565     0.195153     2.564647 H          1 UNL1 0.000
    42 H       1.419738     0.589951    -2.113051 H          1 UNL1 0.000
    43 H       0.187126     0.736306    -4.213199 H          1 UNL1 0.000
    44 H      -2.294352     0.733226    -4.208750 H          1 UNL1 0.000
    45 H      -3.518249     0.586536    -2.098118 H          1 UNL1 0.000
    46 C       1.830647     0.482290     0.493732 C          1 UNL1 0.000
    47 N       2.477028    -0.704013     0.350831 N          1 UNL1 0.000
    48 C       3.831316    -0.691021     0.403572 C          1 UNL1 0.000
    49 C       4.561851     0.466088     0.607794 C          1 UNL1 0.000
    50 C       3.898959     1.682318     0.762323 C          1 UNL1 0.000
    51 C       2.506225     1.688060     0.699166 C          1 UNL1 0.000
    52 N       6.006236     0.397809     0.661466 N          1 UNL1 0.000
    53 O       6.583681     1.173392     1.433475 O          1 UNL1 0.000
    54 O       6.564936    -0.429866    -0.071979 O          1 UNL1 0.000
    55 H       4.302063    -1.663236     0.280536 H          1 UNL1 0.000
    56 H       4.443039     2.609940     0.920349 H          1 UNL1 0.000
    57 H       1.954194     2.618194     0.802785 H          1 UNL1 0.000
@<TRIPOS>BOND
     1      1      2   1
     2      1      3   1
     3      3      4   2
     4      4      5   1
     5      5      6   2
     6      6      7   1
     7      7      8   2
     8      8      3   1
     9      2      9   2
    10      9     10   1
    11     10     11   2
    12     11     12   1
    13     12     13   2
    14     13      2   1
    15     11     14   1
    16     14     15   2
    17     15     16   1
    18     16     17   2
    19     17     12   1
    20     18     19   2
    21     19     20   1
    22     20     21   2
    23     21     22   1
    24     22     23   2
    25     23     18   1
    26     22     24   1
    27     24     25   2
    28     25     26   1
    29     26     27   2
    30     27     23   1
    31      1     18   1
    32      4     28   1
    33      5     29   1
    34      6     30   1
    35      7     31   1
    36      8     32   1
    37      9     33   1
    38     10     34   1
    39     13     35   1
    40     14     36   1
    41     15     37   1
    42     16     38   1
    43     17     39   1
    44     19     40   1
    45     20     41   1
    46     24     42   1
    47     25     43   1
    48     26     44   1
    49     27     45   1
    50     46     47   2
    51     47     48   1
    52     48     49   2
    53     49     50   1
    54     50     51   2
    55     51     46   1
    56     52     53   2
    57     52     54   1
    58     49     52   1
    59     48     55   1
    60     50     56   1
    61     51     57   1
    62     21     46   1
