# Produced with molli package
@<TRIPOS>MOLECULE
F_6_M
57 62 0 0 0
SMALL
USER_CHARGES

@<TRIPOS>ATOM
     1 N      -3.897572     0.490514     0.412939 N          1 UNL1 0.000
     2 C      -4.596567    -0.783079     0.493118 C          1 UNL1 0.000
     3 C      -4.551828     1.787152     0.351825 C          1 UNL1 0.000
     4 C      -5.827945     1.967186    -0.211405 C          1 UNL1 0.000
     5 C      -6.476388     3.208521    -0.184136 C          1 UNL1 0.000
     6 C      -5.835303     4.320571     0.349186 C          1 UNL1 0.000
     7 C      -4.540070     4.194899     0.835568 C          1 UNL1 0.000
     8 C      -3.908613     2.945713     0.835416 C          1 UNL1 0.000
     9 C      -3.940100    -1.992722     0.191856 C          1 UNL1 0.000
    10 C      -4.613735    -3.221051     0.188219 C          1 UNL1 0.000
    11 C      -5.984532    -3.283433     0.455288 C          1 UNL1 0.000
    12 C      -6.663599    -2.098466     0.800538 C          1 UNL1 0.000
    13 C      -5.947155    -0.886296     0.873636 C          1 UNL1 0.000
    14 C      -6.696686    -4.491629     0.373968 C          1 UNL1 0.000
    15 C      -8.074109    -4.521880     0.595189 C          1 UNL1 0.000
    16 C      -8.750710    -3.349870     0.918571 C          1 UNL1 0.000
    17 C      -8.048213    -2.149037     1.035367 C          1 UNL1 0.000
    18 C      -2.446590     0.474501     0.359721 C          1 UNL1 0.000
    19 C      -1.741821     0.410573     1.572155 C          1 UNL1 0.000
    20 C      -0.351797     0.423383     1.577698 C          1 UNL1 0.000
    21 C       0.372721     0.475449     0.375116 C          1 UNL1 0.000
    22 C      -0.322461     0.509860    -0.870519 C          1 UNL1 0.000
    23 C      -1.744422     0.514982    -0.879858 C          1 UNL1 0.000
    24 C       0.352284     0.528055    -2.116337 C          1 UNL1 0.000
    25 C      -0.332373     0.538559    -3.331481 C          1 UNL1 0.000
    26 C      -1.716809     0.539078    -3.337305 C          1 UNL1 0.000
    27 C      -2.411051     0.532161    -2.128084 C          1 UNL1 0.000
    28 H      -6.344135     1.142914    -0.695577 H          1 UNL1 0.000
    29 H      -7.481809     3.302590    -0.586442 H          1 UNL1 0.000
    30 H      -6.336372     5.284481     0.371132 H          1 UNL1 0.000
    31 H      -4.016700     5.064275     1.224981 H          1 UNL1 0.000
    32 H      -2.901576     2.897946     1.239488 H          1 UNL1 0.000
    33 H      -2.885755    -2.008874    -0.071531 H          1 UNL1 0.000
    34 H      -4.057989    -4.122226    -0.060727 H          1 UNL1 0.000
    35 H      -6.480503    -0.008670     1.227105 H          1 UNL1 0.000
    36 H      -6.184116    -5.416248     0.118375 H          1 UNL1 0.000
    37 H      -8.618301    -5.458489     0.506586 H          1 UNL1 0.000
    38 H      -9.826208    -3.367323     1.074561 H          1 UNL1 0.000
    39 H      -8.596760    -1.242424     1.281572 H          1 UNL1 0.000
    40 H      -2.287723     0.371082     2.511801 H          1 UNL1 0.000
    41 H       0.172809     0.392163     2.530952 H          1 UNL1 0.000
    42 H       1.440006     0.525186    -2.156124 H          1 UNL1 0.000
    43 H       0.219972     0.542940    -4.267327 H          1 UNL1 0.000
    44 H      -2.261738     0.541500    -4.277335 H          1 UNL1 0.000
    45 H      -3.498874     0.525709    -2.166973 H          1 UNL1 0.000
    46 C       1.843845     0.475289     0.450073 C          1 UNL1 0.000
    47 C       2.556678    -0.733638     0.462907 C          1 UNL1 0.000
    48 C       3.954381    -0.738942     0.493755 C          1 UNL1 0.000
    49 C       4.659637     0.467798     0.516499 C          1 UNL1 0.000
    50 C       3.960263     1.678438     0.517356 C          1 UNL1 0.000
    51 C       2.561939     1.680814     0.486008 C          1 UNL1 0.000
    52 C       6.092998     0.462823     0.529665 C          1 UNL1 0.000
    53 N       7.254059     0.457127     0.535668 N          1 UNL1 0.000
    54 H       2.019899    -1.680591     0.433774 H          1 UNL1 0.000
    55 H       4.484036    -1.689831     0.492040 H          1 UNL1 0.000
    56 H       4.495297     2.626283     0.534530 H          1 UNL1 0.000
    57 H       2.030233     2.631100     0.475392 H          1 UNL1 0.000
@<TRIPOS>BOND
     1      1      2   1
     2      1      3   1
     3      3      4   2
     4      4      5   1
     5      5      6   2
     6      6      7   1
     7      7      8   2
     8      8      3   1
     9      2      9   2
    10      9     10   1
    11     10     11   2
    12     11     12   1
    13     12     13   2
    14     13      2   1
    15     11     14   1
    16     14     15   2
    17     15     16   1
    18     16     17   2
    19     17     12   1
    20     18     19   2
    21     19     20   1
    22     20     21   2
    23     21     22   1
    24     22     23   2
    25     23     18   1
    26     22     24   1
    27     24     25   2
    28     25     26   1
    29     26     27   2
    30     27     23   1
    31      1     18   1
    32      4     28   1
    33      5     29   1
    34      6     30   1
    35      7     31   1
    36      8     32   1
    37      9     33   1
    38     10     34   1
    39     13     35   1
    40     14     36   1
    41     15     37   1
    42     16     38   1
    43     17     39   1
    44     19     40   1
    45     20     41   1
    46     24     42   1
    47     25     43   1
    48     26     44   1
    49     27     45   1
    50     46     47   2
    51     47     48   1
    52     48     49   2
    53     49     50   1
    54     50     51   2
    55     51     46   1
    56     52     53   3
    57     49     52   1
    58     47     54   1
    59     48     55   1
    60     50     56   1
    61     51     57   1
    62     21     46   1
