# Produced with molli package
@<TRIPOS>MOLECULE
F_6_N
53 58 0 0 0
SMALL
USER_CHARGES

@<TRIPOS>ATOM
     1 N      -3.985468     0.500631     0.510907 N          1 UNL1 0.000
     2 C      -4.675508    -0.777779     0.541893 C          1 UNL1 0.000
     3 C      -4.635976     1.794439     0.410121 C          1 UNL1 0.000
     4 C      -5.852603     1.980276    -0.268542 C          1 UNL1 0.000
     5 C      -6.461906     3.239342    -0.347315 C          1 UNL1 0.000
     6 C      -5.846405     4.353119     0.214667 C          1 UNL1 0.000
     7 C      -4.618998     4.210282     0.849626 C          1 UNL1 0.000
     8 C      -4.024380     2.947817     0.946051 C          1 UNL1 0.000
     9 C      -3.989929    -1.976105     0.260580 C          1 UNL1 0.000
    10 C      -4.640347    -3.214771     0.223944 C          1 UNL1 0.000
    11 C      -6.017159    -3.298937     0.447821 C          1 UNL1 0.000
    12 C      -6.729078    -2.128332     0.769796 C          1 UNL1 0.000
    13 C      -6.041029    -0.897614     0.859353 C          1 UNL1 0.000
    14 C      -6.695772    -4.525108     0.346852 C          1 UNL1 0.000
    15 C      -8.076285    -4.588022     0.537506 C          1 UNL1 0.000
    16 C      -8.786885    -3.432992     0.845545 C          1 UNL1 0.000
    17 C      -8.118411    -2.212466     0.972645 C          1 UNL1 0.000
    18 C      -2.534432     0.495150     0.451852 C          1 UNL1 0.000
    19 C      -1.825048     0.398644     1.660426 C          1 UNL1 0.000
    20 C      -0.436803     0.422452     1.658433 C          1 UNL1 0.000
    21 C       0.264906     0.518245     0.448545 C          1 UNL1 0.000
    22 C      -0.422545     0.579849    -0.796210 C          1 UNL1 0.000
    23 C      -1.842194     0.573451    -0.794185 C          1 UNL1 0.000
    24 C       0.244492     0.633908    -2.046280 C          1 UNL1 0.000
    25 C      -0.449975     0.671602    -3.255686 C          1 UNL1 0.000
    26 C      -1.834335     0.662498    -3.251059 C          1 UNL1 0.000
    27 C      -2.518121     0.617031    -2.037184 C          1 UNL1 0.000
    28 H      -6.337908     1.151821    -0.776750 H          1 UNL1 0.000
    29 H      -7.413158     3.348624    -0.861878 H          1 UNL1 0.000
    30 H      -6.313935     5.331581     0.145437 H          1 UNL1 0.000
    31 H      -4.117286     5.077383     1.271565 H          1 UNL1 0.000
    32 H      -3.067838     2.883063     1.457049 H          1 UNL1 0.000
    33 H      -2.925282    -1.976886     0.040226 H          1 UNL1 0.000
    34 H      -4.060445    -4.103948    -0.008306 H          1 UNL1 0.000
    35 H      -6.602308    -0.024506     1.177542 H          1 UNL1 0.000
    36 H      -6.154798    -5.436014     0.104444 H          1 UNL1 0.000
    37 H      -8.594144    -5.538728     0.439081 H          1 UNL1 0.000
    38 H      -9.864304    -3.478194     0.983104 H          1 UNL1 0.000
    39 H      -8.694107    -1.321220     1.207954 H          1 UNL1 0.000
    40 H      -2.366293     0.327283     2.600684 H          1 UNL1 0.000
    41 H       0.098540     0.372827     2.604251 H          1 UNL1 0.000
    42 H       1.332208     0.634681    -2.091444 H          1 UNL1 0.000
    43 H       0.094277     0.702953    -4.195555 H          1 UNL1 0.000
    44 H      -2.387973     0.685714    -4.185729 H          1 UNL1 0.000
    45 H      -3.605896     0.600719    -2.069625 H          1 UNL1 0.000
    46 C       1.720207     0.566682     0.522546 C          1 UNL1 0.000
    47 C       2.474057    -0.584809     0.629274 C          1 UNL1 0.000
    48 S       4.153019    -0.253538     0.688109 S          1 UNL1 0.000
    49 C       3.882020     1.432224     0.576989 C          1 UNL1 0.000
    50 C       2.540948     1.736581     0.496594 C          1 UNL1 0.000
    51 H       2.125558    -1.608261     0.668809 H          1 UNL1 0.000
    52 H       4.717928     2.118195     0.575246 H          1 UNL1 0.000
    53 H       2.163941     2.749349     0.417613 H          1 UNL1 0.000
@<TRIPOS>BOND
     1      1      2   1
     2      1      3   1
     3      3      4   2
     4      4      5   1
     5      5      6   2
     6      6      7   1
     7      7      8   2
     8      8      3   1
     9      2      9   2
    10      9     10   1
    11     10     11   2
    12     11     12   1
    13     12     13   2
    14     13      2   1
    15     11     14   1
    16     14     15   2
    17     15     16   1
    18     16     17   2
    19     17     12   1
    20     18     19   2
    21     19     20   1
    22     20     21   2
    23     21     22   1
    24     22     23   2
    25     23     18   1
    26     22     24   1
    27     24     25   2
    28     25     26   1
    29     26     27   2
    30     27     23   1
    31      1     18   1
    32      4     28   1
    33      5     29   1
    34      6     30   1
    35      7     31   1
    36      8     32   1
    37      9     33   1
    38     10     34   1
    39     13     35   1
    40     14     36   1
    41     15     37   1
    42     16     38   1
    43     17     39   1
    44     19     40   1
    45     20     41   1
    46     24     42   1
    47     25     43   1
    48     26     44   1
    49     27     45   1
    50     46     47   2
    51     47     48   1
    52     48     49   1
    53     49     50   2
    54     50     46   1
    55     47     51   1
    56     49     52   1
    57     50     53   1
    58     21     46   1
