# Produced with molli package
@<TRIPOS>MOLECULE
F_6_K
58 63 0 0 0
SMALL
USER_CHARGES

@<TRIPOS>ATOM
     1 N      -3.880814     0.557752     0.374995 N          1 UNL1 0.000
     2 C      -4.593944    -0.704319     0.386166 C          1 UNL1 0.000
     3 C      -4.523403     1.843227     0.554555 C          1 UNL1 0.000
     4 C      -5.680353     1.998366     1.337883 C          1 UNL1 0.000
     5 C      -6.296781     3.246185     1.485979 C          1 UNL1 0.000
     6 C      -5.752009     4.373014     0.877522 C          1 UNL1 0.000
     7 C      -4.587188     4.255132     0.127687 C          1 UNL1 0.000
     8 C      -3.980199     3.005492    -0.029398 C          1 UNL1 0.000
     9 C      -3.954494    -1.900050     0.759514 C          1 UNL1 0.000
    10 C      -4.644476    -3.116827     0.809189 C          1 UNL1 0.000
    11 C      -6.004404    -3.181119     0.487962 C          1 UNL1 0.000
    12 C      -6.665532    -2.006027     0.074069 C          1 UNL1 0.000
    13 C      -5.945407    -0.796551     0.002358 C          1 UNL1 0.000
    14 C      -6.720616    -4.386396     0.572170 C          1 UNL1 0.000
    15 C      -8.080161    -4.429609     0.261979 C          1 UNL1 0.000
    16 C      -8.735870    -3.271815    -0.145176 C          1 UNL1 0.000
    17 C      -8.032566    -2.069533    -0.244701 C          1 UNL1 0.000
    18 C      -2.433423     0.541610     0.313371 C          1 UNL1 0.000
    19 C      -1.723944     0.678837     1.517186 C          1 UNL1 0.000
    20 C      -0.335212     0.660717     1.520302 C          1 UNL1 0.000
    21 C       0.383998     0.529713     0.321164 C          1 UNL1 0.000
    22 C      -0.315766     0.413204    -0.917218 C          1 UNL1 0.000
    23 C      -1.737649     0.409595    -0.920700 C          1 UNL1 0.000
    24 C       0.351993     0.310583    -2.162260 C          1 UNL1 0.000
    25 C      -0.340158     0.220387    -3.370295 C          1 UNL1 0.000
    26 C      -1.724866     0.218117    -3.369053 C          1 UNL1 0.000
    27 C      -2.412421     0.306431    -2.159852 C          1 UNL1 0.000
    28 H      -6.111335     1.149538     1.862449 H          1 UNL1 0.000
    29 H      -7.199708     3.335550     2.084412 H          1 UNL1 0.000
    30 H      -6.228946     5.342454     0.994360 H          1 UNL1 0.000
    31 H      -4.147369     5.131728    -0.340855 H          1 UNL1 0.000
    32 H      -3.078539     2.952554    -0.634171 H          1 UNL1 0.000
    33 H      -2.904873    -1.908687     1.040291 H          1 UNL1 0.000
    34 H      -4.107158    -4.011215     1.116451 H          1 UNL1 0.000
    35 H      -6.459978     0.088908    -0.363725 H          1 UNL1 0.000
    36 H      -6.223732    -5.300806     0.888609 H          1 UNL1 0.000
    37 H      -8.625708    -5.366347     0.340676 H          1 UNL1 0.000
    38 H      -9.795973    -3.302215    -0.383008 H          1 UNL1 0.000
    39 H      -8.564639    -1.175014    -0.560998 H          1 UNL1 0.000
    40 H      -2.265808     0.785306     2.454112 H          1 UNL1 0.000
    41 H       0.191564     0.755645     2.468097 H          1 UNL1 0.000
    42 H       1.439302     0.309426    -2.208033 H          1 UNL1 0.000
    43 H       0.206559     0.154938    -4.307182 H          1 UNL1 0.000
    44 H      -2.275070     0.151567    -4.303682 H          1 UNL1 0.000
    45 H      -3.500695     0.308743    -2.191925 H          1 UNL1 0.000
    46 C       1.854537     0.531548     0.396306 C          1 UNL1 0.000
    47 C       2.560226    -0.662775     0.620699 C          1 UNL1 0.000
    48 C       3.956900    -0.669188     0.673708 C          1 UNL1 0.000
    49 C       4.655148     0.531462     0.498879 C          1 UNL1 0.000
    50 C       3.971494     1.733153     0.283029 C          1 UNL1 0.000
    51 C       2.575041     1.727733     0.237371 C          1 UNL1 0.000
    52 N       6.119611     0.527781     0.535665 N          1 UNL1 0.000
    53 O       6.708430     1.493103     0.025185 O          1 UNL1 0.000
    54 O       6.679225    -0.437983     1.070702 O          1 UNL1 0.000
    55 H       2.017451    -1.598840     0.746078 H          1 UNL1 0.000
    56 H       4.479580    -1.608548     0.841102 H          1 UNL1 0.000
    57 H       4.505123     2.671910     0.149298 H          1 UNL1 0.000
    58 H       2.042666     2.662581     0.066403 H          1 UNL1 0.000
@<TRIPOS>BOND
     1      1      2   1
     2      1      3   1
     3      3      4   2
     4      4      5   1
     5      5      6   2
     6      6      7   1
     7      7      8   2
     8      8      3   1
     9      2      9   2
    10      9     10   1
    11     10     11   2
    12     11     12   1
    13     12     13   2
    14     13      2   1
    15     11     14   1
    16     14     15   2
    17     15     16   1
    18     16     17   2
    19     17     12   1
    20     18     19   2
    21     19     20   1
    22     20     21   2
    23     21     22   1
    24     22     23   2
    25     23     18   1
    26     22     24   1
    27     24     25   2
    28     25     26   1
    29     26     27   2
    30     27     23   1
    31      1     18   1
    32      4     28   1
    33      5     29   1
    34      6     30   1
    35      7     31   1
    36      8     32   1
    37      9     33   1
    38     10     34   1
    39     13     35   1
    40     14     36   1
    41     15     37   1
    42     16     38   1
    43     17     39   1
    44     19     40   1
    45     20     41   1
    46     24     42   1
    47     25     43   1
    48     26     44   1
    49     27     45   1
    50     46     47   2
    51     47     48   1
    52     48     49   2
    53     49     50   1
    54     50     51   2
    55     51     46   1
    56     52     53   2
    57     52     54   1
    58     49     52   1
    59     47     55   1
    60     48     56   1
    61     50     57   1
    62     51     58   1
    63     21     46   1
