# Produced with molli package
@<TRIPOS>MOLECULE
F_6_L
60 66 0 0 0
SMALL
USER_CHARGES

@<TRIPOS>ATOM
     1 N      -3.923979     0.498980     0.478339 N          1 UNL1 0.000
     2 C      -4.640156    -0.762377     0.517949 C          1 UNL1 0.000
     3 C      -4.564060     1.794855     0.370592 C          1 UNL1 0.000
     4 C      -5.748168     1.986457    -0.363328 C          1 UNL1 0.000
     5 C      -6.351076     3.246035    -0.458597 C          1 UNL1 0.000
     6 C      -5.765474     4.350129     0.153103 C          1 UNL1 0.000
     7 C      -4.573951     4.197292     0.853171 C          1 UNL1 0.000
     8 C      -3.980612     2.935197     0.958158 C          1 UNL1 0.000
     9 C      -3.995703    -1.973323     0.201467 C          1 UNL1 0.000
    10 C      -4.681662    -3.193031     0.183421 C          1 UNL1 0.000
    11 C      -6.049513    -3.244343     0.467993 C          1 UNL1 0.000
    12 C      -6.718654    -2.056331     0.822679 C          1 UNL1 0.000
    13 C      -5.997612    -0.845108     0.880762 C          1 UNL1 0.000
    14 C      -6.764309    -4.451569     0.398603 C          1 UNL1 0.000
    15 C      -8.134884    -4.480912     0.657564 C          1 UNL1 0.000
    16 C      -8.801197    -3.308975     1.000700 C          1 UNL1 0.000
    17 C      -8.097419    -2.105901     1.092085 C          1 UNL1 0.000
    18 C      -2.474666     0.473998     0.425816 C          1 UNL1 0.000
    19 C      -1.771972     0.339663     1.632742 C          1 UNL1 0.000
    20 C      -0.382477     0.340293     1.636710 C          1 UNL1 0.000
    21 C       0.341956     0.453069     0.437742 C          1 UNL1 0.000
    22 C      -0.352449     0.551452    -0.804621 C          1 UNL1 0.000
    23 C      -1.773183     0.568302    -0.811936 C          1 UNL1 0.000
    24 C       0.321055     0.620760    -2.049490 C          1 UNL1 0.000
    25 C      -0.364377     0.697347    -3.262193 C          1 UNL1 0.000
    26 C      -1.748340     0.710683    -3.266624 C          1 UNL1 0.000
    27 C      -2.440114     0.648549    -2.058203 C          1 UNL1 0.000
    28 H      -6.207212     1.158568    -0.897173 H          1 UNL1 0.000
    29 H      -7.272955     3.363342    -1.022166 H          1 UNL1 0.000
    30 H      -6.229273     5.329693     0.074119 H          1 UNL1 0.000
    31 H      -4.099842     5.057343     1.318938 H          1 UNL1 0.000
    32 H      -3.053036     2.856144     1.518571 H          1 UNL1 0.000
    33 H      -2.941157    -1.995190    -0.061970 H          1 UNL1 0.000
    34 H      -4.136053    -4.096103    -0.078571 H          1 UNL1 0.000
    35 H      -6.522593     0.046609     1.212190 H          1 UNL1 0.000
    36 H      -6.258716    -5.375894     0.129996 H          1 UNL1 0.000
    37 H      -8.680406    -5.418285     0.586294 H          1 UNL1 0.000
    38 H      -9.870639    -3.328019     1.194071 H          1 UNL1 0.000
    39 H      -8.637999    -1.200311     1.356713 H          1 UNL1 0.000
    40 H      -2.316866     0.255459     2.569713 H          1 UNL1 0.000
    41 H       0.144893     0.258864     2.585550 H          1 UNL1 0.000
    42 H       1.409074     0.605352    -2.088924 H          1 UNL1 0.000
    43 H       0.187505     0.741974    -4.196971 H          1 UNL1 0.000
    44 H      -2.295222     0.764685    -4.203759 H          1 UNL1 0.000
    45 H      -3.527354     0.649199    -2.098022 H          1 UNL1 0.000
    46 C       1.813311     0.464312     0.516993 C          1 UNL1 0.000
    47 C       2.531699    -0.736825     0.600224 C          1 UNL1 0.000
    48 C       3.930512    -0.756520     0.653743 C          1 UNL1 0.000
    49 C       4.595291     0.473400     0.621340 C          1 UNL1 0.000
    50 C       3.921441     1.691540     0.545915 C          1 UNL1 0.000
    51 C       2.513758     1.685698     0.497695 C          1 UNL1 0.000
    52 N       5.942230     0.757747     0.650530 N          1 UNL1 0.000
    53 C       6.141732     2.111843     0.594750 C          1 UNL1 0.000
    54 C       4.907197     2.716511     0.530857 C          1 UNL1 0.000
    55 H       1.994327    -1.683962     0.613333 H          1 UNL1 0.000
    56 H       4.470894    -1.695479     0.711652 H          1 UNL1 0.000
    57 H       1.972090     2.625955     0.432900 H          1 UNL1 0.000
    58 H       6.673326     0.062124     0.702517 H          1 UNL1 0.000
    59 H       7.140609     2.526589     0.604714 H          1 UNL1 0.000
    60 H       4.728214     3.782275     0.475941 H          1 UNL1 0.000
@<TRIPOS>BOND
     1      1      2   1
     2      1      3   1
     3      3      4   2
     4      4      5   1
     5      5      6   2
     6      6      7   1
     7      7      8   2
     8      8      3   1
     9      2      9   2
    10      9     10   1
    11     10     11   2
    12     11     12   1
    13     12     13   2
    14     13      2   1
    15     11     14   1
    16     14     15   2
    17     15     16   1
    18     16     17   2
    19     17     12   1
    20     18     19   2
    21     19     20   1
    22     20     21   2
    23     21     22   1
    24     22     23   2
    25     23     18   1
    26     22     24   1
    27     24     25   2
    28     25     26   1
    29     26     27   2
    30     27     23   1
    31      1     18   1
    32      4     28   1
    33      5     29   1
    34      6     30   1
    35      7     31   1
    36      8     32   1
    37      9     33   1
    38     10     34   1
    39     13     35   1
    40     14     36   1
    41     15     37   1
    42     16     38   1
    43     17     39   1
    44     19     40   1
    45     20     41   1
    46     24     42   1
    47     25     43   1
    48     26     44   1
    49     27     45   1
    50     46     47   2
    51     47     48   1
    52     48     49   2
    53     49     50   1
    54     50     51   2
    55     51     46   1
    56     49     52   1
    57     52     53   1
    58     53     54   2
    59     54     50   1
    60     47     55   1
    61     48     56   1
    62     51     57   1
    63     52     58   1
    64     53     59   1
    65     54     60   1
    66     21     46   1
