# Produced with molli package
@<TRIPOS>MOLECULE
F_6_T
59 64 0 0 0
SMALL
USER_CHARGES

@<TRIPOS>ATOM
     1 N      -3.884997     0.443563     0.506693 N          1 UNL1 0.000
     2 C      -4.595657    -0.822146     0.549313 C          1 UNL1 0.000
     3 C      -4.525021     1.741991     0.415327 C          1 UNL1 0.000
     4 C      -5.737923     1.937204    -0.268478 C          1 UNL1 0.000
     5 C      -6.342865     3.198157    -0.338215 C          1 UNL1 0.000
     6 C      -5.728348     4.302948     0.242562 C          1 UNL1 0.000
     7 C      -4.505748     4.149429     0.885478 C          1 UNL1 0.000
     8 C      -3.912924     2.885271     0.969170 C          1 UNL1 0.000
     9 C      -3.944534    -2.029948     0.231987 C          1 UNL1 0.000
    10 C      -4.622128    -3.254349     0.211512 C          1 UNL1 0.000
    11 C      -5.990077    -3.314024     0.492345 C          1 UNL1 0.000
    12 C      -6.665924    -2.131317     0.849984 C          1 UNL1 0.000
    13 C      -5.951309    -0.915801     0.915488 C          1 UNL1 0.000
    14 C      -6.697463    -4.525302     0.415373 C          1 UNL1 0.000
    15 C      -8.069047    -4.562882     0.667603 C          1 UNL1 0.000
    16 C      -8.742908    -3.395962     1.012486 C          1 UNL1 0.000
    17 C      -8.045768    -2.189541     1.113475 C          1 UNL1 0.000
    18 C      -2.435748     0.419179     0.438906 C          1 UNL1 0.000
    19 C      -1.720072     0.304211     1.640311 C          1 UNL1 0.000
    20 C      -0.330736     0.303719     1.629027 C          1 UNL1 0.000
    21 C       0.380329     0.394675     0.420297 C          1 UNL1 0.000
    22 C      -0.327641     0.473264    -0.815899 C          1 UNL1 0.000
    23 C      -1.748246     0.492913    -0.807899 C          1 UNL1 0.000
    24 C       0.331957     0.519211    -2.069190 C          1 UNL1 0.000
    25 C      -0.366984     0.575138    -3.275320 C          1 UNL1 0.000
    26 C      -1.750980     0.592328    -3.264479 C          1 UNL1 0.000
    27 C      -2.429398     0.554413    -2.047486 C          1 UNL1 0.000
    28 H      -6.222425     1.112223    -0.783563 H          1 UNL1 0.000
    29 H      -7.289948     3.315717    -0.858354 H          1 UNL1 0.000
    30 H      -6.193591     5.283159     0.182785 H          1 UNL1 0.000
    31 H      -4.006959     5.009856     1.323984 H          1 UNL1 0.000
    32 H      -2.960489     2.809130     1.486477 H          1 UNL1 0.000
    33 H      -2.889597    -2.047131    -0.030298 H          1 UNL1 0.000
    34 H      -4.070284    -4.153293    -0.051024 H          1 UNL1 0.000
    35 H      -6.481698    -0.030841     1.255064 H          1 UNL1 0.000
    36 H      -6.185675    -5.445578     0.145090 H          1 UNL1 0.000
    37 H      -8.609260    -5.502799     0.589140 H          1 UNL1 0.000
    38 H      -9.813399    -3.421274     1.199504 H          1 UNL1 0.000
    39 H      -8.592587    -1.288140     1.378910 H          1 UNL1 0.000
    40 H      -2.255083     0.235063     2.584204 H          1 UNL1 0.000
    41 H       0.206901     0.236168     2.573151 H          1 UNL1 0.000
    42 H       1.419360     0.499954    -2.120338 H          1 UNL1 0.000
    43 H       0.174333     0.600315    -4.216997 H          1 UNL1 0.000
    44 H      -2.308128     0.629958    -4.196383 H          1 UNL1 0.000
    45 H      -3.517205     0.558089    -2.074408 H          1 UNL1 0.000
    46 C       1.851430     0.400832     0.482467 C          1 UNL1 0.000
    47 C       2.571088    -0.800036     0.554739 C          1 UNL1 0.000
    48 C       3.968446    -0.794865     0.587193 C          1 UNL1 0.000
    49 C       4.673544     0.412606     0.548604 C          1 UNL1 0.000
    50 C       3.960219     1.615084     0.489843 C          1 UNL1 0.000
    51 C       2.563350     1.608828     0.458039 C          1 UNL1 0.000
    52 C       6.173020     0.432545     0.575203 C          1 UNL1 0.000
    53 H       2.041816    -1.750513     0.574684 H          1 UNL1 0.000
    54 H       4.499448    -1.742640     0.636949 H          1 UNL1 0.000
    55 H       4.488346     2.565621     0.463134 H          1 UNL1 0.000
    56 H       2.027690     2.554544     0.403466 H          1 UNL1 0.000
    57 H       6.527261     0.931836     1.482533 H          1 UNL1 0.000
    58 H       6.558843     0.962199    -0.301974 H          1 UNL1 0.000
    59 H       6.588443    -0.580449     0.561825 H          1 UNL1 0.000
@<TRIPOS>BOND
     1      1      2   1
     2      1      3   1
     3      3      4   2
     4      4      5   1
     5      5      6   2
     6      6      7   1
     7      7      8   2
     8      8      3   1
     9      2      9   2
    10      9     10   1
    11     10     11   2
    12     11     12   1
    13     12     13   2
    14     13      2   1
    15     11     14   1
    16     14     15   2
    17     15     16   1
    18     16     17   2
    19     17     12   1
    20     18     19   2
    21     19     20   1
    22     20     21   2
    23     21     22   1
    24     22     23   2
    25     23     18   1
    26     22     24   1
    27     24     25   2
    28     25     26   1
    29     26     27   2
    30     27     23   1
    31      1     18   1
    32      4     28   1
    33      5     29   1
    34      6     30   1
    35      7     31   1
    36      8     32   1
    37      9     33   1
    38     10     34   1
    39     13     35   1
    40     14     36   1
    41     15     37   1
    42     16     38   1
    43     17     39   1
    44     19     40   1
    45     20     41   1
    46     24     42   1
    47     25     43   1
    48     26     44   1
    49     27     45   1
    50     46     47   2
    51     47     48   1
    52     48     49   2
    53     49     50   1
    54     50     51   2
    55     51     46   1
    56     49     52   1
    57     47     53   1
    58     48     54   1
    59     50     55   1
    60     51     56   1
    61     52     57   1
    62     52     58   1
    63     52     59   1
    64     21     46   1
