# Produced with molli package
@<TRIPOS>MOLECULE
F_6_O
55 60 0 0 0
SMALL
USER_CHARGES

@<TRIPOS>ATOM
     1 N      -3.945245     0.483502     0.438827 N          1 UNL1 0.000
     2 C      -4.644969    -0.788774     0.489824 C          1 UNL1 0.000
     3 C      -4.592579     1.777785     0.336191 C          1 UNL1 0.000
     4 C      -5.816827     1.958480    -0.331017 C          1 UNL1 0.000
     5 C      -6.434507     3.213674    -0.400520 C          1 UNL1 0.000
     6 C      -5.820094     4.329025     0.159386 C          1 UNL1 0.000
     7 C      -4.584296     4.191871     0.779761 C          1 UNL1 0.000
     8 C      -3.980147     2.932973     0.865583 C          1 UNL1 0.000
     9 C      -3.979086    -1.992884     0.188606 C          1 UNL1 0.000
    10 C      -4.641344    -3.225775     0.180415 C          1 UNL1 0.000
    11 C      -6.009617    -3.298024     0.456753 C          1 UNL1 0.000
    12 C      -6.700721    -2.119699     0.796530 C          1 UNL1 0.000
    13 C      -6.000969    -0.894360     0.851329 C          1 UNL1 0.000
    14 C      -6.700984    -4.519498     0.393015 C          1 UNL1 0.000
    15 C      -8.073096    -4.570723     0.640272 C          1 UNL1 0.000
    16 C      -8.762794    -3.407953     0.966503 C          1 UNL1 0.000
    17 C      -8.081281    -2.191420     1.054845 C          1 UNL1 0.000
    18 C      -2.494433     0.465412     0.410031 C          1 UNL1 0.000
    19 C      -1.811899     0.361622     1.631635 C          1 UNL1 0.000
    20 C      -0.422991     0.359052     1.657321 C          1 UNL1 0.000
    21 C       0.321117     0.438498     0.467109 C          1 UNL1 0.000
    22 C      -0.352847     0.495064    -0.788322 C          1 UNL1 0.000
    23 C      -1.773390     0.522063    -0.818584 C          1 UNL1 0.000
    24 C       0.340482     0.508503    -2.023959 C          1 UNL1 0.000
    25 C      -0.326033     0.547243    -3.248962 C          1 UNL1 0.000
    26 C      -1.709793     0.579736    -3.275216 C          1 UNL1 0.000
    27 C      -2.421048     0.569382    -2.076399 C          1 UNL1 0.000
    28 H      -6.303664     1.126107    -0.831665 H          1 UNL1 0.000
    29 H      -7.392510     3.317874    -0.903315 H          1 UNL1 0.000
    30 H      -6.295855     5.304235     0.100769 H          1 UNL1 0.000
    31 H      -4.084783     5.060548     1.200769 H          1 UNL1 0.000
    32 H      -3.018416     2.871428     1.367168 H          1 UNL1 0.000
    33 H      -2.922326    -2.002260    -0.068179 H          1 UNL1 0.000
    34 H      -4.076747    -4.120636    -0.067748 H          1 UNL1 0.000
    35 H      -6.542946    -0.013496     1.181713 H          1 UNL1 0.000
    36 H      -6.176228    -5.436457     0.137658 H          1 UNL1 0.000
    37 H      -8.600847    -5.518560     0.572453 H          1 UNL1 0.000
    38 H      -9.833749    -3.444167     1.149262 H          1 UNL1 0.000
    39 H      -8.640260    -1.293799     1.306142 H          1 UNL1 0.000
    40 H      -2.372247     0.296769     2.560992 H          1 UNL1 0.000
    41 H       0.091117     0.289153     2.614306 H          1 UNL1 0.000
    42 H       1.428170     0.462133    -2.045769 H          1 UNL1 0.000
    43 H       0.239800     0.541028    -4.176453 H          1 UNL1 0.000
    44 H      -2.241484     0.601386    -4.222407 H          1 UNL1 0.000
    45 H      -3.507875     0.579032    -2.131889 H          1 UNL1 0.000
    46 C       1.786112     0.467873     0.569839 C          1 UNL1 0.000
    47 N       2.400936    -0.738828     0.614819 N          1 UNL1 0.000
    48 C       3.749348    -0.742856     0.692089 C          1 UNL1 0.000
    49 C       4.523685     0.404590     0.733368 C          1 UNL1 0.000
    50 C       3.878153     1.634384     0.695321 C          1 UNL1 0.000
    51 C       2.489081     1.670879     0.612999 C          1 UNL1 0.000
    52 H       4.206306    -1.727944     0.718973 H          1 UNL1 0.000
    53 H       5.604247     0.340409     0.793843 H          1 UNL1 0.000
    54 H       4.449782     2.557404     0.726717 H          1 UNL1 0.000
    55 H       1.963562     2.619851     0.576502 H          1 UNL1 0.000
@<TRIPOS>BOND
     1      1      2   1
     2      1      3   1
     3      3      4   2
     4      4      5   1
     5      5      6   2
     6      6      7   1
     7      7      8   2
     8      8      3   1
     9      2      9   2
    10      9     10   1
    11     10     11   2
    12     11     12   1
    13     12     13   2
    14     13      2   1
    15     11     14   1
    16     14     15   2
    17     15     16   1
    18     16     17   2
    19     17     12   1
    20     18     19   2
    21     19     20   1
    22     20     21   2
    23     21     22   1
    24     22     23   2
    25     23     18   1
    26     22     24   1
    27     24     25   2
    28     25     26   1
    29     26     27   2
    30     27     23   1
    31      1     18   1
    32      4     28   1
    33      5     29   1
    34      6     30   1
    35      7     31   1
    36      8     32   1
    37      9     33   1
    38     10     34   1
    39     13     35   1
    40     14     36   1
    41     15     37   1
    42     16     38   1
    43     17     39   1
    44     19     40   1
    45     20     41   1
    46     24     42   1
    47     25     43   1
    48     26     44   1
    49     27     45   1
    50     46     47   2
    51     47     48   1
    52     48     49   2
    53     49     50   1
    54     50     51   2
    55     51     46   1
    56     48     52   1
    57     49     53   1
    58     50     54   1
    59     51     55   1
    60     21     46   1
