# Produced with molli package
@<TRIPOS>MOLECULE
F_6_S
61 66 0 0 0
SMALL
USER_CHARGES

@<TRIPOS>ATOM
     1 N      -3.932150     0.510104     0.528207 N          1 UNL1 0.000
     2 C      -4.643962    -0.756677     0.570560 C          1 UNL1 0.000
     3 C      -4.569674     1.812643     0.436259 C          1 UNL1 0.000
     4 C      -5.825609     2.001683    -0.167360 C          1 UNL1 0.000
     5 C      -6.437403     3.261143    -0.212185 C          1 UNL1 0.000
     6 C      -5.783281     4.376147     0.299889 C          1 UNL1 0.000
     7 C      -4.513883     4.233842     0.846061 C          1 UNL1 0.000
     8 C      -3.917674     2.969570     0.913250 C          1 UNL1 0.000
     9 C      -4.000557    -1.961954     0.226294 C          1 UNL1 0.000
    10 C      -4.686285    -3.181296     0.180258 C          1 UNL1 0.000
    11 C      -6.053991    -3.239388     0.458946 C          1 UNL1 0.000
    12 C      -6.719413    -2.061538     0.855249 C          1 UNL1 0.000
    13 C      -5.993608    -0.855814     0.954906 C          1 UNL1 0.000
    14 C      -6.774335    -4.439099     0.340758 C          1 UNL1 0.000
    15 C      -8.147184    -4.470728     0.585349 C          1 UNL1 0.000
    16 C      -8.810045    -3.308765     0.968312 C          1 UNL1 0.000
    17 C      -8.099547    -2.115256     1.114545 C          1 UNL1 0.000
    18 C      -2.481777     0.479357     0.473148 C          1 UNL1 0.000
    19 C      -1.776899     0.397423     1.683805 C          1 UNL1 0.000
    20 C      -0.387046     0.396852     1.686208 C          1 UNL1 0.000
    21 C       0.335825     0.452317     0.482426 C          1 UNL1 0.000
    22 C      -0.361045     0.497139    -0.762251 C          1 UNL1 0.000
    23 C      -1.782163     0.520129    -0.768102 C          1 UNL1 0.000
    24 C       0.309437     0.506169    -2.010574 C          1 UNL1 0.000
    25 C      -0.379199     0.528007    -3.223844 C          1 UNL1 0.000
    26 C      -1.763274     0.550809    -3.225751 C          1 UNL1 0.000
    27 C      -2.452627     0.551532    -2.014402 C          1 UNL1 0.000
    28 H      -6.348292     1.173491    -0.637336 H          1 UNL1 0.000
    29 H      -7.422692     3.368018    -0.658653 H          1 UNL1 0.000
    30 H      -6.254179     5.354608     0.259881 H          1 UNL1 0.000
    31 H      -3.981720     5.102668     1.224638 H          1 UNL1 0.000
    32 H      -2.928224     2.908250     1.357482 H          1 UNL1 0.000
    33 H      -2.947720    -1.980186    -0.042827 H          1 UNL1 0.000
    34 H      -4.141215    -4.077499    -0.107254 H          1 UNL1 0.000
    35 H      -6.514521     0.020658     1.330708 H          1 UNL1 0.000
    36 H      -6.271468    -5.355463     0.039800 H          1 UNL1 0.000
    37 H      -8.697880    -5.400637     0.470418 H          1 UNL1 0.000
    38 H      -9.881785    -3.328456     1.147902 H          1 UNL1 0.000
    39 H      -8.638377    -1.216872     1.407516 H          1 UNL1 0.000
    40 H      -2.321418     0.354442     2.623990 H          1 UNL1 0.000
    41 H       0.139712     0.352655     2.637828 H          1 UNL1 0.000
    42 H       1.396771     0.482484    -2.053329 H          1 UNL1 0.000
    43 H       0.169631     0.522129    -4.161638 H          1 UNL1 0.000
    44 H      -2.312086     0.562123    -4.163419 H          1 UNL1 0.000
    45 H      -3.540505     0.559727    -2.050388 H          1 UNL1 0.000
    46 C       1.806730     0.450298     0.556912 C          1 UNL1 0.000
    47 C       2.518234    -0.755649     0.596317 C          1 UNL1 0.000
    48 C       3.915953    -0.757170     0.628190 C          1 UNL1 0.000
    49 C       4.632248     0.447720     0.625076 C          1 UNL1 0.000
    50 C       3.928133     1.656135     0.614737 C          1 UNL1 0.000
    51 C       2.527425     1.654220     0.576528 C          1 UNL1 0.000
    52 C       6.125690     0.374604     0.632758 C          1 UNL1 0.000
    53 C       6.944870     1.627124     0.450792 C          1 UNL1 0.000
    54 O       6.677908    -0.709848     0.803656 O          1 UNL1 0.000
    55 H       1.985544    -1.704931     0.588670 H          1 UNL1 0.000
    56 H       4.443374    -1.709652     0.648123 H          1 UNL1 0.000
    57 H       4.434518     2.615962     0.636868 H          1 UNL1 0.000
    58 H       1.994069     2.603588     0.552484 H          1 UNL1 0.000
    59 H       7.211759     2.032379     1.429811 H          1 UNL1 0.000
    60 H       6.429594     2.382601    -0.144057 H          1 UNL1 0.000
    61 H       7.857873     1.369302    -0.095881 H          1 UNL1 0.000
@<TRIPOS>BOND
     1      1      2   1
     2      1      3   1
     3      3      4   2
     4      4      5   1
     5      5      6   2
     6      6      7   1
     7      7      8   2
     8      8      3   1
     9      2      9   2
    10      9     10   1
    11     10     11   2
    12     11     12   1
    13     12     13   2
    14     13      2   1
    15     11     14   1
    16     14     15   2
    17     15     16   1
    18     16     17   2
    19     17     12   1
    20     18     19   2
    21     19     20   1
    22     20     21   2
    23     21     22   1
    24     22     23   2
    25     23     18   1
    26     22     24   1
    27     24     25   2
    28     25     26   1
    29     26     27   2
    30     27     23   1
    31      1     18   1
    32      4     28   1
    33      5     29   1
    34      6     30   1
    35      7     31   1
    36      8     32   1
    37      9     33   1
    38     10     34   1
    39     13     35   1
    40     14     36   1
    41     15     37   1
    42     16     38   1
    43     17     39   1
    44     19     40   1
    45     20     41   1
    46     24     42   1
    47     25     43   1
    48     26     44   1
    49     27     45   1
    50     46     47   2
    51     47     48   1
    52     48     49   2
    53     49     50   1
    54     50     51   2
    55     51     46   1
    56     49     52   1
    57     52     53   1
    58     52     54   2
    59     47     55   1
    60     48     56   1
    61     50     57   1
    62     51     58   1
    63     53     59   1
    64     53     60   1
    65     53     61   1
    66     21     46   1
