# Produced with molli package
@<TRIPOS>MOLECULE
F_7_Q
52 56 0 0 0
SMALL
USER_CHARGES

@<TRIPOS>ATOM
     1 N      -6.171963     0.504828    -0.883069 N          1 UNL1 0.000
     2 C      -6.886102    -0.756533    -0.906540 C          1 UNL1 0.000
     3 C      -6.817860     1.798212    -0.777892 C          1 UNL1 0.000
     4 C      -8.032575     1.983691    -0.096403 C          1 UNL1 0.000
     5 C      -8.638973     3.243320    -0.019700 C          1 UNL1 0.000
     6 C      -8.024653     4.353557    -0.591691 C          1 UNL1 0.000
     7 C      -6.802581     4.206994    -1.237824 C          1 UNL1 0.000
     8 C      -6.209188     2.944494    -1.331119 C          1 UNL1 0.000
     9 C      -6.261709    -1.951559    -0.501832 C          1 UNL1 0.000
    10 C      -6.956598    -3.165356    -0.452192 C          1 UNL1 0.000
    11 C      -8.311902    -3.225905    -0.789817 C          1 UNL1 0.000
    12 C      -8.957798    -2.054247    -1.236927 C          1 UNL1 0.000
    13 C      -8.225743    -0.852566    -1.327279 C          1 UNL1 0.000
    14 C      -9.040285    -4.421699    -0.681910 C          1 UNL1 0.000
    15 C     -10.399881    -4.457281    -0.991904 C          1 UNL1 0.000
    16 C     -11.042186    -3.302229    -1.427603 C          1 UNL1 0.000
    17 C     -10.324392    -2.111494    -1.558805 C          1 UNL1 0.000
    18 C      -4.735148     0.488197    -0.799354 C          1 UNL1 0.000
    19 C      -3.955980     0.207496    -1.928790 C          1 UNL1 0.000
    20 C      -2.560129     0.250080    -1.847699 C          1 UNL1 0.000
    21 C      -1.922500     0.539638    -0.633577 C          1 UNL1 0.000
    22 C      -2.704252     0.802980     0.498024 C          1 UNL1 0.000
    23 C      -4.098573     0.783628     0.414912 C          1 UNL1 0.000
    24 C      -0.456342     0.644825    -0.600752 C          1 UNL1 0.000
    25 C       0.302936     0.224092     0.418466 C          1 UNL1 0.000
    26 H      -8.518817     1.152028     0.406294 H          1 UNL1 0.000
    27 H      -9.588337     3.355341     0.497560 H          1 UNL1 0.000
    28 H      -8.492092     5.332356    -0.525456 H          1 UNL1 0.000
    29 H      -6.306776     5.070799    -1.672909 H          1 UNL1 0.000
    30 H      -5.259658     2.865891    -1.854976 H          1 UNL1 0.000
    31 H      -5.220686    -1.959922    -0.188818 H          1 UNL1 0.000
    32 H      -6.429350    -4.056839    -0.119792 H          1 UNL1 0.000
    33 H      -8.728553     0.026264    -1.723899 H          1 UNL1 0.000
    34 H      -8.554040    -5.332965    -0.340473 H          1 UNL1 0.000
    35 H     -10.956546    -5.384892    -0.887882 H          1 UNL1 0.000
    36 H     -12.103417    -3.325418    -1.660943 H          1 UNL1 0.000
    37 H     -10.846822    -1.218385    -1.894953 H          1 UNL1 0.000
    38 H      -4.437929    -0.012278    -2.877976 H          1 UNL1 0.000
    39 H      -1.976173     0.055692    -2.744926 H          1 UNL1 0.000
    40 H      -2.242835     1.047649     1.451208 H          1 UNL1 0.000
    41 H      -4.694781     0.997875     1.298549 H          1 UNL1 0.000
    42 H      -0.000744     1.073865    -1.492783 H          1 UNL1 0.000
    43 H      -0.114841    -0.277414     1.287666 H          1 UNL1 0.000
    44 C       1.760548     0.342393     0.419703 C          1 UNL1 0.000
    45 N       2.444402    -0.804411     0.638505 N          1 UNL1 0.000
    46 C       3.793288    -0.690567     0.636433 C          1 UNL1 0.000
    47 C       4.440198     0.519913     0.450089 C          1 UNL1 0.000
    48 N       3.768857     1.676461     0.257377 N          1 UNL1 0.000
    49 C       2.417097     1.559097     0.248013 C          1 UNL1 0.000
    50 H       4.346356    -1.610414     0.787587 H          1 UNL1 0.000
    51 H       5.521908     0.591029     0.451893 H          1 UNL1 0.000
    52 H       1.871698     2.485949     0.106767 H          1 UNL1 0.000
@<TRIPOS>BOND
     1      1      2   1
     2      1      3   1
     3      3      4   2
     4      4      5   1
     5      5      6   2
     6      6      7   1
     7      7      8   2
     8      8      3   1
     9      2      9   2
    10      9     10   1
    11     10     11   2
    12     11     12   1
    13     12     13   2
    14     13      2   1
    15     11     14   1
    16     14     15   2
    17     15     16   1
    18     16     17   2
    19     17     12   1
    20     18     19   2
    21     19     20   1
    22     20     21   2
    23     21     22   1
    24     22     23   2
    25     23     18   1
    26     21     24   1
    27     24     25   2
    28      1     18   1
    29      4     26   1
    30      5     27   1
    31      6     28   1
    32      7     29   1
    33      8     30   1
    34      9     31   1
    35     10     32   1
    36     13     33   1
    37     14     34   1
    38     15     35   1
    39     16     36   1
    40     17     37   1
    41     19     38   1
    42     20     39   1
    43     22     40   1
    44     23     41   1
    45     24     42   1
    46     25     43   1
    47     44     45   2
    48     45     46   1
    49     46     47   2
    50     47     48   1
    51     48     49   2
    52     49     44   1
    53     46     50   1
    54     47     51   1
    55     49     52   1
    56     25     44   1
