# Produced with molli package
@<TRIPOS>MOLECULE
F_7_K
56 60 0 0 0
SMALL
USER_CHARGES

@<TRIPOS>ATOM
     1 N      -6.147840     0.481091    -0.723477 N          1 UNL1 0.000
     2 C      -6.859644    -0.780842    -0.724106 C          1 UNL1 0.000
     3 C      -6.805188     1.761119    -0.856198 C          1 UNL1 0.000
     4 C      -7.924505     1.942128    -1.686164 C          1 UNL1 0.000
     5 C      -8.557326     3.185833    -1.785450 C          1 UNL1 0.000
     6 C      -8.068795     4.278636    -1.074010 C          1 UNL1 0.000
     7 C      -6.943245     4.132112    -0.269425 C          1 UNL1 0.000
     8 C      -6.317070     2.887032    -0.164461 C          1 UNL1 0.000
     9 C      -6.214867    -1.976718    -1.090955 C          1 UNL1 0.000
    10 C      -6.896087    -3.198301    -1.124875 C          1 UNL1 0.000
    11 C      -8.256782    -3.265231    -0.808843 C          1 UNL1 0.000
    12 C      -8.928579    -2.086838    -0.421150 C          1 UNL1 0.000
    13 C      -8.215261    -0.872858    -0.356855 C          1 UNL1 0.000
    14 C      -8.964355    -4.476306    -0.877187 C          1 UNL1 0.000
    15 C     -10.327106    -4.521665    -0.582222 C          1 UNL1 0.000
    16 C     -10.994863    -3.359794    -0.207416 C          1 UNL1 0.000
    17 C     -10.299496    -2.151956    -0.120533 C          1 UNL1 0.000
    18 C      -4.710056     0.474365    -0.677121 C          1 UNL1 0.000
    19 C      -3.965551     0.861657    -1.800991 C          1 UNL1 0.000
    20 C      -2.569211     0.813080    -1.776564 C          1 UNL1 0.000
    21 C      -1.893517     0.410942    -0.618617 C          1 UNL1 0.000
    22 C      -2.636651     0.033845     0.508022 C          1 UNL1 0.000
    23 C      -4.034079     0.059359     0.478191 C          1 UNL1 0.000
    24 C      -0.428429     0.328294    -0.639964 C          1 UNL1 0.000
    25 C       0.348274     0.776624     0.358346 C          1 UNL1 0.000
    26 H      -8.309033     1.115896    -2.278931 H          1 UNL1 0.000
    27 H      -9.429595     3.299533    -2.423850 H          1 UNL1 0.000
    28 H      -8.560549     5.244768    -1.151315 H          1 UNL1 0.000
    29 H      -6.551272     4.982787     0.281907 H          1 UNL1 0.000
    30 H      -5.448416     2.798779     0.483631 H          1 UNL1 0.000
    31 H      -5.166634    -1.978438    -1.379429 H          1 UNL1 0.000
    32 H      -6.352413    -4.092985    -1.419543 H          1 UNL1 0.000
    33 H      -8.739545     0.015264    -0.011945 H          1 UNL1 0.000
    34 H      -8.458311    -5.393465    -1.170202 H          1 UNL1 0.000
    35 H     -10.866096    -5.463049    -0.649136 H          1 UNL1 0.000
    36 H     -12.058146    -3.391392     0.015414 H          1 UNL1 0.000
    37 H     -10.840620    -1.254405     0.170914 H          1 UNL1 0.000
    38 H      -4.477986     1.172198    -2.708376 H          1 UNL1 0.000
    39 H      -2.016556     1.094632    -2.670019 H          1 UNL1 0.000
    40 H      -2.137537    -0.300921     1.414125 H          1 UNL1 0.000
    41 H      -4.599134    -0.240129     1.357331 H          1 UNL1 0.000
    42 H       0.007520    -0.104300    -1.537783 H          1 UNL1 0.000
    43 H      -0.075450     1.258971     1.235660 H          1 UNL1 0.000
    44 C       1.809682     0.678620     0.320738 C          1 UNL1 0.000
    45 C       2.449101    -0.556754     0.141765 C          1 UNL1 0.000
    46 C       3.844281    -0.639900     0.140695 C          1 UNL1 0.000
    47 C       4.600257     0.523570     0.326279 C          1 UNL1 0.000
    48 C       3.975786     1.762297     0.511387 C          1 UNL1 0.000
    49 C       2.579838     1.833459     0.511700 C          1 UNL1 0.000
    50 N       6.062646     0.440265     0.333296 N          1 UNL1 0.000
    51 O       6.584952    -0.554194    -0.185767 O          1 UNL1 0.000
    52 O       6.687562     1.373707     0.861560 O          1 UNL1 0.000
    53 H       1.863143    -1.465388     0.014155 H          1 UNL1 0.000
    54 H       4.320541    -1.608700     0.005433 H          1 UNL1 0.000
    55 H       4.555768     2.672062     0.653693 H          1 UNL1 0.000
    56 H       2.096047     2.798302     0.653591 H          1 UNL1 0.000
@<TRIPOS>BOND
     1      1      2   1
     2      1      3   1
     3      3      4   2
     4      4      5   1
     5      5      6   2
     6      6      7   1
     7      7      8   2
     8      8      3   1
     9      2      9   2
    10      9     10   1
    11     10     11   2
    12     11     12   1
    13     12     13   2
    14     13      2   1
    15     11     14   1
    16     14     15   2
    17     15     16   1
    18     16     17   2
    19     17     12   1
    20     18     19   2
    21     19     20   1
    22     20     21   2
    23     21     22   1
    24     22     23   2
    25     23     18   1
    26     21     24   1
    27     24     25   2
    28      1     18   1
    29      4     26   1
    30      5     27   1
    31      6     28   1
    32      7     29   1
    33      8     30   1
    34      9     31   1
    35     10     32   1
    36     13     33   1
    37     14     34   1
    38     15     35   1
    39     16     36   1
    40     17     37   1
    41     19     38   1
    42     20     39   1
    43     22     40   1
    44     23     41   1
    45     24     42   1
    46     25     43   1
    47     44     45   2
    48     45     46   1
    49     46     47   2
    50     47     48   1
    51     48     49   2
    52     49     44   1
    53     50     51   2
    54     50     52   1
    55     47     50   1
    56     45     53   1
    57     46     54   1
    58     48     55   1
    59     49     56   1
    60     25     44   1
