# Produced with molli package
@<TRIPOS>MOLECULE
F_7_N
51 55 0 0 0
SMALL
USER_CHARGES

@<TRIPOS>ATOM
     1 N      -6.214568     0.533558    -0.794499 N          1 UNL1 0.000
     2 C      -6.895853    -0.748884    -0.781216 C          1 UNL1 0.000
     3 C      -6.874163     1.817613    -0.913280 C          1 UNL1 0.000
     4 C      -8.063485     1.994770    -1.639384 C          1 UNL1 0.000
     5 C      -8.696363     3.242828    -1.709141 C          1 UNL1 0.000
     6 C      -8.131112     4.352936    -1.088413 C          1 UNL1 0.000
     7 C      -6.928827     4.218967    -0.405031 C          1 UNL1 0.000
     8 C      -6.310765     2.967590    -0.319211 C          1 UNL1 0.000
     9 C      -6.192323    -1.939263    -1.057356 C          1 UNL1 0.000
    10 C      -6.820949    -3.188964    -1.065503 C          1 UNL1 0.000
    11 C      -8.191903    -3.295856    -0.822983 C          1 UNL1 0.000
    12 C      -8.927352    -2.128379    -0.530236 C          1 UNL1 0.000
    13 C      -8.262220    -0.883805    -0.475590 C          1 UNL1 0.000
    14 C      -8.845015    -4.537943    -0.871953 C          1 UNL1 0.000
    15 C     -10.220233    -4.626177    -0.658876 C          1 UNL1 0.000
    16 C     -10.953880    -3.475990    -0.385132 C          1 UNL1 0.000
    17 C     -10.311397    -2.237576    -0.311951 C          1 UNL1 0.000
    18 C      -4.777115     0.538000    -0.722086 C          1 UNL1 0.000
    19 C      -4.012182     0.761575    -1.873780 C          1 UNL1 0.000
    20 C      -2.616118     0.721643    -1.810475 C          1 UNL1 0.000
    21 C      -1.956464     0.485406    -0.595081 C          1 UNL1 0.000
    22 C      -2.729105     0.269571     0.554868 C          1 UNL1 0.000
    23 C      -4.126114     0.290752     0.492698 C          1 UNL1 0.000
    24 C      -0.483356     0.423735    -0.596911 C          1 UNL1 0.000
    25 C       0.309723     0.530773     0.477548 C          1 UNL1 0.000
    26 H      -8.511072     1.165607    -2.180431 H          1 UNL1 0.000
    27 H      -9.629207     3.346342    -2.257414 H          1 UNL1 0.000
    28 H      -8.620028     5.321767    -1.145921 H          1 UNL1 0.000
    29 H      -6.468132     5.082639     0.067471 H          1 UNL1 0.000
    30 H      -5.379022     2.902964     0.237221 H          1 UNL1 0.000
    31 H      -5.129390    -1.920854    -1.284963 H          1 UNL1 0.000
    32 H      -6.225714    -4.073003    -1.282266 H          1 UNL1 0.000
    33 H      -8.839303    -0.011826    -0.180333 H          1 UNL1 0.000
    34 H      -8.285725    -5.445893    -1.086657 H          1 UNL1 0.000
    35 H     -10.716936    -5.591410    -0.711771 H          1 UNL1 0.000
    36 H     -12.027641    -3.540916    -0.230076 H          1 UNL1 0.000
    37 H     -10.904786    -1.351006    -0.099696 H          1 UNL1 0.000
    38 H      -4.506663     0.937783    -2.825845 H          1 UNL1 0.000
    39 H      -2.050718     0.875530    -2.727472 H          1 UNL1 0.000
    40 H      -2.265752     0.066799     1.515897 H          1 UNL1 0.000
    41 H      -4.711073     0.118531     1.392747 H          1 UNL1 0.000
    42 H      -0.023152     0.295959    -1.577299 H          1 UNL1 0.000
    43 H      -0.108237     0.694594     1.467858 H          1 UNL1 0.000
    44 C       1.735651     0.476059     0.411472 C          1 UNL1 0.000
    45 C       2.441779    -0.703823     0.329827 C          1 UNL1 0.000
    46 S       4.133122    -0.433378     0.280917 S          1 UNL1 0.000
    47 C       3.919823     1.262870     0.371127 C          1 UNL1 0.000
    48 C       2.589310     1.615365     0.441456 C          1 UNL1 0.000
    49 H       2.057189    -1.714625     0.300061 H          1 UNL1 0.000
    50 H       4.779159     1.919033     0.369554 H          1 UNL1 0.000
    51 H       2.250298     2.642427     0.503272 H          1 UNL1 0.000
@<TRIPOS>BOND
     1      1      2   1
     2      1      3   1
     3      3      4   2
     4      4      5   1
     5      5      6   2
     6      6      7   1
     7      7      8   2
     8      8      3   1
     9      2      9   2
    10      9     10   1
    11     10     11   2
    12     11     12   1
    13     12     13   2
    14     13      2   1
    15     11     14   1
    16     14     15   2
    17     15     16   1
    18     16     17   2
    19     17     12   1
    20     18     19   2
    21     19     20   1
    22     20     21   2
    23     21     22   1
    24     22     23   2
    25     23     18   1
    26     21     24   1
    27     24     25   2
    28      1     18   1
    29      4     26   1
    30      5     27   1
    31      6     28   1
    32      7     29   1
    33      8     30   1
    34      9     31   1
    35     10     32   1
    36     13     33   1
    37     14     34   1
    38     15     35   1
    39     16     36   1
    40     17     37   1
    41     19     38   1
    42     20     39   1
    43     22     40   1
    44     23     41   1
    45     24     42   1
    46     25     43   1
    47     44     45   2
    48     45     46   1
    49     46     47   1
    50     47     48   2
    51     48     44   1
    52     45     49   1
    53     47     50   1
    54     48     51   1
    55     25     44   1
