# Produced with molli package
@<TRIPOS>MOLECULE
F_7_S
59 63 0 0 0
SMALL
USER_CHARGES

@<TRIPOS>ATOM
     1 N      -6.175476     0.516304    -0.783966 N          1 UNL1 0.000
     2 C      -6.883852    -0.750506    -0.796215 C          1 UNL1 0.000
     3 C      -6.822943     1.811510    -0.721497 C          1 UNL1 0.000
     4 C      -8.047481     2.013253    -0.061685 C          1 UNL1 0.000
     5 C      -8.668886     3.268232    -0.043554 C          1 UNL1 0.000
     6 C      -8.058415     4.361616    -0.650178 C          1 UNL1 0.000
     7 C      -6.822690     4.203627    -1.266354 C          1 UNL1 0.000
     8 C      -6.214298     2.944728    -1.300449 C          1 UNL1 0.000
     9 C      -6.242100    -1.944858    -0.414805 C          1 UNL1 0.000
    10 C      -6.920608    -3.168497    -0.373201 C          1 UNL1 0.000
    11 C      -8.278034    -3.242289    -0.697561 C          1 UNL1 0.000
    12 C      -8.944230    -2.072279    -1.116389 C          1 UNL1 0.000
    13 C      -8.228488    -0.859134    -1.197825 C          1 UNL1 0.000
    14 C      -8.986748    -4.451530    -0.607904 C          1 UNL1 0.000
    15 C     -10.347954    -4.501992    -0.908390 C          1 UNL1 0.000
    16 C     -11.011667    -3.348000    -1.313223 C          1 UNL1 0.000
    17 C     -10.313341    -2.143642    -1.425482 C          1 UNL1 0.000
    18 C      -4.738922     0.500052    -0.708174 C          1 UNL1 0.000
    19 C      -3.963216     0.325444    -1.859627 C          1 UNL1 0.000
    20 C      -2.566029     0.325617    -1.774987 C          1 UNL1 0.000
    21 C      -1.914339     0.471566    -0.539426 C          1 UNL1 0.000
    22 C      -2.701130     0.633903     0.609648 C          1 UNL1 0.000
    23 C      -4.097331     0.658193     0.526659 C          1 UNL1 0.000
    24 C      -0.438449     0.465686    -0.518000 C          1 UNL1 0.000
    25 C       0.332373     0.480289     0.581254 C          1 UNL1 0.000
    26 H      -8.533121     1.197303     0.466777 H          1 UNL1 0.000
    27 H      -9.628082     3.389563     0.453132 H          1 UNL1 0.000
    28 H      -8.538703     5.336279    -0.633464 H          1 UNL1 0.000
    29 H      -6.328212     5.055199    -1.726434 H          1 UNL1 0.000
    30 H      -5.254820     2.860996    -1.803980 H          1 UNL1 0.000
    31 H      -5.195566    -1.949299    -0.121302 H          1 UNL1 0.000
    32 H      -6.377067    -4.058007    -0.062907 H          1 UNL1 0.000
    33 H      -8.748628     0.014591    -1.581897 H          1 UNL1 0.000
    34 H      -8.483209    -5.362270    -0.291399 H          1 UNL1 0.000
    35 H     -10.888783    -5.440728    -0.821754 H          1 UNL1 0.000
    36 H     -12.074280    -3.382854    -1.538846 H          1 UNL1 0.000
    37 H     -10.852265    -1.252201    -1.738815 H          1 UNL1 0.000
    38 H      -4.448491     0.210243    -2.825486 H          1 UNL1 0.000
    39 H      -1.992611     0.209239    -2.692282 H          1 UNL1 0.000
    40 H      -2.251695     0.748690     1.591248 H          1 UNL1 0.000
    41 H      -4.689723     0.783117     1.429866 H          1 UNL1 0.000
    42 H       0.042440     0.446645    -1.495235 H          1 UNL1 0.000
    43 H      -0.068131     0.495237     1.588793 H          1 UNL1 0.000
    44 C       1.793238     0.474532     0.497783 C          1 UNL1 0.000
    45 C       2.489031    -0.729340     0.368608 C          1 UNL1 0.000
    46 C       3.886127    -0.729908     0.315265 C          1 UNL1 0.000
    47 C       4.604771     0.472143     0.391909 C          1 UNL1 0.000
    48 C       3.904132     1.677403     0.517241 C          1 UNL1 0.000
    49 C       2.504325     1.676553     0.564491 C          1 UNL1 0.000
    50 C       6.098087     0.403715     0.343445 C          1 UNL1 0.000
    51 C       6.908027     1.661593     0.528502 C          1 UNL1 0.000
    52 O       6.652823    -0.681617     0.191215 O          1 UNL1 0.000
    53 H       1.952654    -1.674410     0.317522 H          1 UNL1 0.000
    54 H       4.412104    -1.678756     0.221532 H          1 UNL1 0.000
    55 H       4.413745     2.633432     0.582204 H          1 UNL1 0.000
    56 H       1.972106     2.621220     0.658758 H          1 UNL1 0.000
    57 H       6.962449     1.910388     1.591306 H          1 UNL1 0.000
    58 H       6.499273     2.495560    -0.044887 H          1 UNL1 0.000
    59 H       7.921798     1.486514     0.153694 H          1 UNL1 0.000
@<TRIPOS>BOND
     1      1      2   1
     2      1      3   1
     3      3      4   2
     4      4      5   1
     5      5      6   2
     6      6      7   1
     7      7      8   2
     8      8      3   1
     9      2      9   2
    10      9     10   1
    11     10     11   2
    12     11     12   1
    13     12     13   2
    14     13      2   1
    15     11     14   1
    16     14     15   2
    17     15     16   1
    18     16     17   2
    19     17     12   1
    20     18     19   2
    21     19     20   1
    22     20     21   2
    23     21     22   1
    24     22     23   2
    25     23     18   1
    26     21     24   1
    27     24     25   2
    28      1     18   1
    29      4     26   1
    30      5     27   1
    31      6     28   1
    32      7     29   1
    33      8     30   1
    34      9     31   1
    35     10     32   1
    36     13     33   1
    37     14     34   1
    38     15     35   1
    39     16     36   1
    40     17     37   1
    41     19     38   1
    42     20     39   1
    43     22     40   1
    44     23     41   1
    45     24     42   1
    46     25     43   1
    47     44     45   2
    48     45     46   1
    49     46     47   2
    50     47     48   1
    51     48     49   2
    52     49     44   1
    53     47     50   1
    54     50     51   1
    55     50     52   2
    56     45     53   1
    57     46     54   1
    58     48     55   1
    59     49     56   1
    60     51     57   1
    61     51     58   1
    62     51     59   1
    63     25     44   1
