# Produced with molli package
@<TRIPOS>MOLECULE
F_7_R
55 59 0 0 0
SMALL
USER_CHARGES

@<TRIPOS>ATOM
     1 N      -6.188629     0.506141    -0.661840 N          1 UNL1 0.000
     2 C      -6.883945    -0.769434    -0.640605 C          1 UNL1 0.000
     3 C      -6.839758     1.793227    -0.809326 C          1 UNL1 0.000
     4 C      -8.048182     1.956458    -1.508557 C          1 UNL1 0.000
     5 C      -8.683597     3.201960    -1.592312 C          1 UNL1 0.000
     6 C      -8.098574     4.326839    -1.020332 C          1 UNL1 0.000
     7 C      -6.873633     4.209129    -0.374739 C          1 UNL1 0.000
     8 C      -6.254587     2.958750    -0.270770 C          1 UNL1 0.000
     9 C      -6.203407    -1.969427    -0.928155 C          1 UNL1 0.000
    10 C      -6.863080    -3.202930    -0.974196 C          1 UNL1 0.000
    11 C      -8.240785    -3.281504    -0.756197 C          1 UNL1 0.000
    12 C      -8.947571    -2.106708    -0.427175 C          1 UNL1 0.000
    13 C      -8.250976    -0.883595    -0.327692 C          1 UNL1 0.000
    14 C      -8.930154    -4.499775    -0.868960 C          1 UNL1 0.000
    15 C     -10.311616    -4.554324    -0.684640 C          1 UNL1 0.000
    16 C     -11.015074    -3.395950    -0.369200 C          1 UNL1 0.000
    17 C     -10.336881    -2.182909    -0.229781 C          1 UNL1 0.000
    18 C      -4.749394     0.495983    -0.623655 C          1 UNL1 0.000
    19 C      -4.009387     0.615581    -1.808810 C          1 UNL1 0.000
    20 C      -2.612763     0.556038    -1.778306 C          1 UNL1 0.000
    21 C      -1.932151     0.412445    -0.562392 C          1 UNL1 0.000
    22 C      -2.675268     0.297535     0.621122 C          1 UNL1 0.000
    23 C      -4.072463     0.332826     0.591837 C          1 UNL1 0.000
    24 C      -0.465617     0.314307    -0.572110 C          1 UNL1 0.000
    25 C       0.325392     0.875423     0.357726 C          1 UNL1 0.000
    26 H      -8.513544     1.116460    -2.016858 H          1 UNL1 0.000
    27 H      -9.633842     3.290110    -2.112717 H          1 UNL1 0.000
    28 H      -8.589354     5.294007    -1.088028 H          1 UNL1 0.000
    29 H      -6.396540     5.085748     0.055635 H          1 UNL1 0.000
    30 H      -5.305304     2.909355     0.256159 H          1 UNL1 0.000
    31 H      -5.138240    -1.971709    -1.144880 H          1 UNL1 0.000
    32 H      -6.288001    -4.095425    -1.210038 H          1 UNL1 0.000
    33 H      -8.806590    -0.006888    -0.005878 H          1 UNL1 0.000
    34 H      -8.395231    -5.413725    -1.117411 H          1 UNL1 0.000
    35 H     -10.836989    -5.499466    -0.793603 H          1 UNL1 0.000
    36 H     -12.093114    -3.433946    -0.236443 H          1 UNL1 0.000
    37 H     -10.906785    -1.288179     0.010869 H          1 UNL1 0.000
    38 H      -4.526004     0.723362    -2.759400 H          1 UNL1 0.000
    39 H      -2.062358     0.623235    -2.714274 H          1 UNL1 0.000
    40 H      -2.177676     0.157525     1.577298 H          1 UNL1 0.000
    41 H      -4.637246     0.235154     1.515367 H          1 UNL1 0.000
    42 H      -0.032252    -0.239461    -1.403119 H          1 UNL1 0.000
    43 H      -0.109241     1.456932     1.165053 H          1 UNL1 0.000
    44 C       1.791030     0.768325     0.365589 C          1 UNL1 0.000
    45 N       2.364133    -0.118443    -0.486365 N          1 UNL1 0.000
    46 C       3.715746    -0.238819    -0.457985 C          1 UNL1 0.000
    47 C       4.520405     0.499775     0.392881 C          1 UNL1 0.000
    48 C       3.928247     1.414144     1.262812 C          1 UNL1 0.000
    49 C       2.539214     1.547089     1.248015 C          1 UNL1 0.000
    50 N       5.960445     0.309914     0.373543 N          1 UNL1 0.000
    51 O       6.602696     0.710147     1.355265 O          1 UNL1 0.000
    52 O       6.455678    -0.237059    -0.620202 O          1 UNL1 0.000
    53 H       4.118658    -0.970998    -1.153459 H          1 UNL1 0.000
    54 H       4.522118     2.018918     1.943864 H          1 UNL1 0.000
    55 H       2.056676     2.253397     1.917055 H          1 UNL1 0.000
@<TRIPOS>BOND
     1      1      2   1
     2      1      3   1
     3      3      4   2
     4      4      5   1
     5      5      6   2
     6      6      7   1
     7      7      8   2
     8      8      3   1
     9      2      9   2
    10      9     10   1
    11     10     11   2
    12     11     12   1
    13     12     13   2
    14     13      2   1
    15     11     14   1
    16     14     15   2
    17     15     16   1
    18     16     17   2
    19     17     12   1
    20     18     19   2
    21     19     20   1
    22     20     21   2
    23     21     22   1
    24     22     23   2
    25     23     18   1
    26     21     24   1
    27     24     25   2
    28      1     18   1
    29      4     26   1
    30      5     27   1
    31      6     28   1
    32      7     29   1
    33      8     30   1
    34      9     31   1
    35     10     32   1
    36     13     33   1
    37     14     34   1
    38     15     35   1
    39     16     36   1
    40     17     37   1
    41     19     38   1
    42     20     39   1
    43     22     40   1
    44     23     41   1
    45     24     42   1
    46     25     43   1
    47     44     45   2
    48     45     46   1
    49     46     47   2
    50     47     48   1
    51     48     49   2
    52     49     44   1
    53     50     51   2
    54     50     52   1
    55     47     50   1
    56     46     53   1
    57     48     54   1
    58     49     55   1
    59     25     44   1
