# Produced with molli package
@<TRIPOS>MOLECULE
F_7_O
53 57 0 0 0
SMALL
USER_CHARGES

@<TRIPOS>ATOM
     1 N      -6.201360     0.469890    -0.803972 N          1 UNL1 0.000
     2 C      -6.919217    -0.790338    -0.839071 C          1 UNL1 0.000
     3 C      -6.842048     1.759841    -0.658087 C          1 UNL1 0.000
     4 C      -8.026745     1.935395     0.076971 C          1 UNL1 0.000
     5 C      -8.634045     3.191683     0.187738 C          1 UNL1 0.000
     6 C      -8.049952     4.307017    -0.405786 C          1 UNL1 0.000
     7 C      -6.856006     4.169095    -1.105212 C          1 UNL1 0.000
     8 C      -6.260617     2.910197    -1.229673 C          1 UNL1 0.000
     9 C      -6.282632    -1.998065    -0.493447 C          1 UNL1 0.000
    10 C      -6.972938    -3.214831    -0.466385 C          1 UNL1 0.000
    11 C      -8.337152    -3.266384    -0.765573 C          1 UNL1 0.000
    12 C      -8.998875    -2.080615    -1.146973 C          1 UNL1 0.000
    13 C      -8.272359    -0.873715    -1.216693 C          1 UNL1 0.000
    14 C      -9.057718    -4.468831    -0.683207 C          1 UNL1 0.000
    15 C     -10.425820    -4.497673    -0.953372 C          1 UNL1 0.000
    16 C     -11.084534    -3.328720    -1.322118 C          1 UNL1 0.000
    17 C     -10.374791    -2.130479    -1.427809 C          1 UNL1 0.000
    18 C      -4.763622     0.444369    -0.743368 C          1 UNL1 0.000
    19 C      -4.003644     0.139531    -1.879179 C          1 UNL1 0.000
    20 C      -2.607698     0.091372    -1.799493 C          1 UNL1 0.000
    21 C      -1.947646     0.334841    -0.586429 C          1 UNL1 0.000
    22 C      -2.714233     0.624043     0.550031 C          1 UNL1 0.000
    23 C      -4.107648     0.695758     0.469695 C          1 UNL1 0.000
    24 C      -0.480764     0.209912    -0.537810 C          1 UNL1 0.000
    25 C       0.317394     0.855946     0.322094 C          1 UNL1 0.000
    26 H      -8.486946     1.096873     0.592886 H          1 UNL1 0.000
    27 H      -9.560419     3.296823     0.746429 H          1 UNL1 0.000
    28 H      -8.519085     5.283115    -0.315716 H          1 UNL1 0.000
    29 H      -6.384655     5.037035    -1.558813 H          1 UNL1 0.000
    30 H      -5.334519     2.835243    -1.794688 H          1 UNL1 0.000
    31 H      -5.232343    -2.016820    -0.213118 H          1 UNL1 0.000
    32 H      -6.433559    -4.115955    -0.183623 H          1 UNL1 0.000
    33 H      -8.789307     0.017142    -1.564693 H          1 UNL1 0.000
    34 H      -8.558131    -5.390775    -0.394055 H          1 UNL1 0.000
    35 H     -10.975883    -5.431326    -0.870592 H          1 UNL1 0.000
    36 H     -12.152310    -3.347024    -1.523826 H          1 UNL1 0.000
    37 H     -10.909692    -1.227031    -1.712241 H          1 UNL1 0.000
    38 H      -4.499481    -0.054900    -2.826591 H          1 UNL1 0.000
    39 H      -2.039570    -0.140730    -2.698136 H          1 UNL1 0.000
    40 H      -2.244982     0.776501     1.517855 H          1 UNL1 0.000
    41 H      -4.688384     0.912117     1.362937 H          1 UNL1 0.000
    42 H      -0.041722    -0.451848    -1.285409 H          1 UNL1 0.000
    43 H      -0.091386     1.548739     1.052284 H          1 UNL1 0.000
    44 C       1.782093     0.712594     0.342471 C          1 UNL1 0.000
    45 N       2.314425    -0.355984    -0.296655 N          1 UNL1 0.000
    46 C       3.658886    -0.489341    -0.267577 C          1 UNL1 0.000
    47 C       4.509227     0.402691     0.362274 C          1 UNL1 0.000
    48 C       3.947754     1.494964     1.011060 C          1 UNL1 0.000
    49 C       2.563420     1.650568     1.009651 C          1 UNL1 0.000
    50 H       4.046718    -1.363380    -0.782945 H          1 UNL1 0.000
    51 H       5.582447     0.250008     0.346938 H          1 UNL1 0.000
    52 H       4.580166     2.221287     1.513010 H          1 UNL1 0.000
    53 H       2.113053     2.500709     1.511429 H          1 UNL1 0.000
@<TRIPOS>BOND
     1      1      2   1
     2      1      3   1
     3      3      4   2
     4      4      5   1
     5      5      6   2
     6      6      7   1
     7      7      8   2
     8      8      3   1
     9      2      9   2
    10      9     10   1
    11     10     11   2
    12     11     12   1
    13     12     13   2
    14     13      2   1
    15     11     14   1
    16     14     15   2
    17     15     16   1
    18     16     17   2
    19     17     12   1
    20     18     19   2
    21     19     20   1
    22     20     21   2
    23     21     22   1
    24     22     23   2
    25     23     18   1
    26     21     24   1
    27     24     25   2
    28      1     18   1
    29      4     26   1
    30      5     27   1
    31      6     28   1
    32      7     29   1
    33      8     30   1
    34      9     31   1
    35     10     32   1
    36     13     33   1
    37     14     34   1
    38     15     35   1
    39     16     36   1
    40     17     37   1
    41     19     38   1
    42     20     39   1
    43     22     40   1
    44     23     41   1
    45     24     42   1
    46     25     43   1
    47     44     45   2
    48     45     46   1
    49     46     47   2
    50     47     48   1
    51     48     49   2
    52     49     44   1
    53     46     50   1
    54     47     51   1
    55     48     52   1
    56     49     53   1
    57     25     44   1
