# Produced with molli package
@<TRIPOS>MOLECULE
F_7_L
58 63 0 0 0
SMALL
USER_CHARGES

@<TRIPOS>ATOM
     1 N      -6.211941     0.521509    -0.725513 N          1 UNL1 0.000
     2 C      -6.923717    -0.742629    -0.670638 C          1 UNL1 0.000
     3 C      -6.857846     1.813073    -0.848397 C          1 UNL1 0.000
     4 C      -8.052808     1.993804    -1.565843 C          1 UNL1 0.000
     5 C      -8.689601     3.239669    -1.620833 C          1 UNL1 0.000
     6 C      -8.119510     4.345902    -0.998436 C          1 UNL1 0.000
     7 C      -6.906879     4.210499    -0.332872 C          1 UNL1 0.000
     8 C      -6.285051     2.960039    -0.260327 C          1 UNL1 0.000
     9 C      -6.264947    -1.958424    -0.937857 C          1 UNL1 0.000
    10 C      -6.945216    -3.182656    -0.938819 C          1 UNL1 0.000
    11 C      -8.321344    -3.235841    -0.697138 C          1 UNL1 0.000
    12 C      -9.006605    -2.040500    -0.396938 C          1 UNL1 0.000
    13 C      -8.290125    -0.827327    -0.343540 C          1 UNL1 0.000
    14 C      -9.032620    -4.445633    -0.756415 C          1 UNL1 0.000
    15 C     -10.412022    -4.472092    -0.548664 C          1 UNL1 0.000
    16 C     -11.093280    -3.292280    -0.264960 C          1 UNL1 0.000
    17 C     -10.393881    -2.086982    -0.178633 C          1 UNL1 0.000
    18 C      -4.773661     0.508334    -0.688371 C          1 UNL1 0.000
    19 C      -4.031224     0.686624    -1.862743 C          1 UNL1 0.000
    20 C      -2.631823     0.685545    -1.823122 C          1 UNL1 0.000
    21 C      -1.943750     0.532001    -0.609610 C          1 UNL1 0.000
    22 C      -2.696642     0.349885     0.560265 C          1 UNL1 0.000
    23 C      -4.095364     0.329573     0.522503 C          1 UNL1 0.000
    24 C      -0.467578     0.538962    -0.628533 C          1 UNL1 0.000
    25 C       0.323522     0.599891     0.454688 C          1 UNL1 0.000
    26 H      -8.505342     1.165139    -2.104086 H          1 UNL1 0.000
    27 H      -9.630175     3.343129    -2.155562 H          1 UNL1 0.000
    28 H      -8.612866     5.313163    -1.040789 H          1 UNL1 0.000
    29 H      -6.442330     5.072462     0.138866 H          1 UNL1 0.000
    30 H      -5.346930     2.893510     0.284604 H          1 UNL1 0.000
    31 H      -5.203225    -1.978983    -1.170254 H          1 UNL1 0.000
    32 H      -6.387627    -4.091060    -1.156480 H          1 UNL1 0.000
    33 H      -8.830192     0.066686    -0.042892 H          1 UNL1 0.000
    34 H      -8.516141    -5.376765    -0.979561 H          1 UNL1 0.000
    35 H     -10.953771    -5.411932    -0.614355 H          1 UNL1 0.000
    36 H     -12.169532    -3.307924    -0.114692 H          1 UNL1 0.000
    37 H     -10.945734    -1.174802     0.038909 H          1 UNL1 0.000
    38 H      -4.545130     0.812199    -2.812595 H          1 UNL1 0.000
    39 H      -2.086620     0.812426    -2.756100 H          1 UNL1 0.000
    40 H      -2.215346     0.218471     1.524719 H          1 UNL1 0.000
    41 H      -4.658983     0.196613     1.442488 H          1 UNL1 0.000
    42 H      -0.007455     0.497810    -1.614706 H          1 UNL1 0.000
    43 H      -0.061651     0.662361     1.466384 H          1 UNL1 0.000
    44 C       1.785304     0.587998     0.362221 C          1 UNL1 0.000
    45 C       2.470978    -0.627943     0.290464 C          1 UNL1 0.000
    46 C       3.869808    -0.672719     0.270502 C          1 UNL1 0.000
    47 C       4.556396     0.545257     0.325626 C          1 UNL1 0.000
    48 C       3.902954     1.776543     0.380409 C          1 UNL1 0.000
    49 C       2.493791     1.798506     0.393386 C          1 UNL1 0.000
    50 N       5.908880     0.803478     0.345194 N          1 UNL1 0.000
    51 C       6.132470     2.153463     0.407286 C          1 UNL1 0.000
    52 C       4.908314     2.782142     0.423787 C          1 UNL1 0.000
    53 H       1.915485    -1.563544     0.266249 H          1 UNL1 0.000
    54 H       4.394965    -1.621163     0.228448 H          1 UNL1 0.000
    55 H       1.967210     2.746985     0.445853 H          1 UNL1 0.000
    56 H       6.627779     0.093562     0.325528 H          1 UNL1 0.000
    57 H       7.139002     2.548460     0.436548 H          1 UNL1 0.000
    58 H       4.749013     3.851291     0.471941 H          1 UNL1 0.000
@<TRIPOS>BOND
     1      1      2   1
     2      1      3   1
     3      3      4   2
     4      4      5   1
     5      5      6   2
     6      6      7   1
     7      7      8   2
     8      8      3   1
     9      2      9   2
    10      9     10   1
    11     10     11   2
    12     11     12   1
    13     12     13   2
    14     13      2   1
    15     11     14   1
    16     14     15   2
    17     15     16   1
    18     16     17   2
    19     17     12   1
    20     18     19   2
    21     19     20   1
    22     20     21   2
    23     21     22   1
    24     22     23   2
    25     23     18   1
    26     21     24   1
    27     24     25   2
    28      1     18   1
    29      4     26   1
    30      5     27   1
    31      6     28   1
    32      7     29   1
    33      8     30   1
    34      9     31   1
    35     10     32   1
    36     13     33   1
    37     14     34   1
    38     15     35   1
    39     16     36   1
    40     17     37   1
    41     19     38   1
    42     20     39   1
    43     22     40   1
    44     23     41   1
    45     24     42   1
    46     25     43   1
    47     44     45   2
    48     45     46   1
    49     46     47   2
    50     47     48   1
    51     48     49   2
    52     49     44   1
    53     47     50   1
    54     50     51   1
    55     51     52   2
    56     52     48   1
    57     45     53   1
    58     46     54   1
    59     49     55   1
    60     50     56   1
    61     51     57   1
    62     52     58   1
    63     25     44   1
