# Produced with molli package
@<TRIPOS>MOLECULE
F_7_P
58 62 0 0 0
SMALL
USER_CHARGES

@<TRIPOS>ATOM
     1 N      -6.117805     0.558902    -0.857303 N          1 UNL1 0.000
     2 C      -6.816569    -0.712838    -0.803889 C          1 UNL1 0.000
     3 C      -6.764832     1.846566    -1.019185 C          1 UNL1 0.000
     4 C      -7.975881     2.004088    -1.714449 C          1 UNL1 0.000
     5 C      -8.606261     3.251323    -1.812729 C          1 UNL1 0.000
     6 C      -8.014374     4.382234    -1.259335 C          1 UNL1 0.000
     7 C      -6.787246     4.269263    -0.617931 C          1 UNL1 0.000
     8 C      -6.173073     3.018234    -0.499958 C          1 UNL1 0.000
     9 C      -6.141351    -1.919681    -1.072807 C          1 UNL1 0.000
    10 C      -6.801305    -3.154403    -1.070212 C          1 UNL1 0.000
    11 C      -8.174645    -3.227191    -0.819828 C          1 UNL1 0.000
    12 C      -8.876511    -2.042979    -0.517786 C          1 UNL1 0.000
    13 C      -8.179935    -0.816425    -0.471230 C          1 UNL1 0.000
    14 C      -8.863819    -4.450277    -0.871856 C          1 UNL1 0.000
    15 C     -10.240677    -4.500119    -0.652664 C          1 UNL1 0.000
    16 C     -10.939672    -3.331937    -0.365932 C          1 UNL1 0.000
    17 C     -10.261546    -2.113275    -0.288306 C          1 UNL1 0.000
    18 C      -4.681391     0.549841    -0.773609 C          1 UNL1 0.000
    19 C      -3.901593     0.681431    -1.929373 C          1 UNL1 0.000
    20 C      -2.505088     0.668447    -1.844070 C          1 UNL1 0.000
    21 C      -1.857688     0.547098    -0.604477 C          1 UNL1 0.000
    22 C      -2.648397     0.429563     0.548213 C          1 UNL1 0.000
    23 C      -4.044724     0.416431     0.465398 C          1 UNL1 0.000
    24 C      -0.381837     0.545095    -0.580013 C          1 UNL1 0.000
    25 C       0.383403     0.382069     0.509818 C          1 UNL1 0.000
    26 H      -8.447099     1.158090    -2.207120 H          1 UNL1 0.000
    27 H      -9.558571     3.336392    -2.329729 H          1 UNL1 0.000
    28 H      -8.501445     5.350382    -1.337894 H          1 UNL1 0.000
    29 H      -6.303974     5.149248    -0.201477 H          1 UNL1 0.000
    30 H      -5.221237     2.974963     0.023134 H          1 UNL1 0.000
    31 H      -5.080247    -1.925801    -1.309327 H          1 UNL1 0.000
    32 H      -6.230612    -4.053613    -1.289712 H          1 UNL1 0.000
    33 H      -8.730668     0.069649    -0.168001 H          1 UNL1 0.000
    34 H      -8.332682    -5.372224    -1.096806 H          1 UNL1 0.000
    35 H     -10.765822    -5.449910    -0.711564 H          1 UNL1 0.000
    36 H     -12.014215    -3.366524    -0.206000 H          1 UNL1 0.000
    37 H     -10.827691    -1.211223    -0.067874 H          1 UNL1 0.000
    38 H      -4.384179     0.775563    -2.899015 H          1 UNL1 0.000
    39 H      -1.929569     0.752856    -2.763638 H          1 UNL1 0.000
    40 H      -2.201213     0.346907     1.533921 H          1 UNL1 0.000
    41 H      -4.639585     0.324743     1.370669 H          1 UNL1 0.000
    42 H       0.103875     0.674716    -1.546777 H          1 UNL1 0.000
    43 H      -0.020297     0.237871     1.505775 H          1 UNL1 0.000
    44 C       1.844158     0.351266     0.431846 C          1 UNL1 0.000
    45 C       2.588410     1.531107     0.542363 C          1 UNL1 0.000
    46 C       3.984748     1.484631     0.511196 C          1 UNL1 0.000
    47 C       4.631330     0.256465     0.377413 C          1 UNL1 0.000
    48 C       3.897263    -0.916684     0.222317 C          1 UNL1 0.000
    49 C       2.503075    -0.871138     0.259240 C          1 UNL1 0.000
    50 O       5.995457     0.162000     0.333339 O          1 UNL1 0.000
    51 C       6.571974     0.507637     1.592927 C          1 UNL1 0.000
    52 H       2.086753     2.489221     0.655625 H          1 UNL1 0.000
    53 H       4.556790     2.404553     0.582767 H          1 UNL1 0.000
    54 H       4.409196    -1.865018     0.088174 H          1 UNL1 0.000
    55 H       1.935459    -1.792990     0.157818 H          1 UNL1 0.000
    56 H       7.616712     0.182454     1.582632 H          1 UNL1 0.000
    57 H       6.068876    -0.004642     2.421598 H          1 UNL1 0.000
    58 H       6.556467     1.591321     1.746403 H          1 UNL1 0.000
@<TRIPOS>BOND
     1      1      2   1
     2      1      3   1
     3      3      4   2
     4      4      5   1
     5      5      6   2
     6      6      7   1
     7      7      8   2
     8      8      3   1
     9      2      9   2
    10      9     10   1
    11     10     11   2
    12     11     12   1
    13     12     13   2
    14     13      2   1
    15     11     14   1
    16     14     15   2
    17     15     16   1
    18     16     17   2
    19     17     12   1
    20     18     19   2
    21     19     20   1
    22     20     21   2
    23     21     22   1
    24     22     23   2
    25     23     18   1
    26     21     24   1
    27     24     25   2
    28      1     18   1
    29      4     26   1
    30      5     27   1
    31      6     28   1
    32      7     29   1
    33      8     30   1
    34      9     31   1
    35     10     32   1
    36     13     33   1
    37     14     34   1
    38     15     35   1
    39     16     36   1
    40     17     37   1
    41     19     38   1
    42     20     39   1
    43     22     40   1
    44     23     41   1
    45     24     42   1
    46     25     43   1
    47     44     45   2
    48     45     46   1
    49     46     47   2
    50     47     48   1
    51     48     49   2
    52     49     44   1
    53     50     51   1
    54     47     50   1
    55     45     52   1
    56     46     53   1
    57     48     54   1
    58     49     55   1
    59     51     56   1
    60     51     57   1
    61     51     58   1
    62     25     44   1
