# Produced with molli package
@<TRIPOS>MOLECULE
F_7_T
57 61 0 0 0
SMALL
USER_CHARGES

@<TRIPOS>ATOM
     1 N      -6.206466     0.564962    -0.790024 N          1 UNL1 0.000
     2 C      -6.904254    -0.706973    -0.789830 C          1 UNL1 0.000
     3 C      -6.856890     1.854642    -0.906747 C          1 UNL1 0.000
     4 C      -8.064059     2.032701    -1.603491 C          1 UNL1 0.000
     5 C      -8.689470     3.284223    -1.671938 C          1 UNL1 0.000
     6 C      -8.099730     4.396989    -1.079870 C          1 UNL1 0.000
     7 C      -6.881576     4.261528    -0.425185 C          1 UNL1 0.000
     8 C      -6.270873     3.006483    -0.339169 C          1 UNL1 0.000
     9 C      -6.236877    -1.893297    -1.152932 C          1 UNL1 0.000
    10 C      -6.893657    -3.128070    -1.193013 C          1 UNL1 0.000
    11 C      -8.255071    -3.220221    -0.891200 C          1 UNL1 0.000
    12 C      -8.949468    -2.055834    -0.501515 C          1 UNL1 0.000
    13 C      -8.256124    -0.829542    -0.420391 C          1 UNL1 0.000
    14 C      -8.940337    -4.443096    -0.976438 C          1 UNL1 0.000
    15 C     -10.305915    -4.513564    -0.701446 C          1 UNL1 0.000
    16 C     -10.997633    -3.365712    -0.327118 C          1 UNL1 0.000
    17 C     -10.322994    -2.147427    -0.218736 C          1 UNL1 0.000
    18 C      -4.770224     0.552949    -0.702085 C          1 UNL1 0.000
    19 C      -3.986936     0.836735    -1.828056 C          1 UNL1 0.000
    20 C      -2.590920     0.816362    -1.740924 C          1 UNL1 0.000
    21 C      -1.947549     0.537360    -0.525209 C          1 UNL1 0.000
    22 C      -2.740700     0.255947     0.596989 C          1 UNL1 0.000
    23 C      -4.136649     0.256096     0.510042 C          1 UNL1 0.000
    24 C      -0.472879     0.528520    -0.496962 C          1 UNL1 0.000
    25 C       0.286018     0.451069     0.608069 C          1 UNL1 0.000
    26 H      -8.533433     1.200643    -2.121161 H          1 UNL1 0.000
    27 H      -9.635801     3.387596    -2.196528 H          1 UNL1 0.000
    28 H      -8.582584     5.368809    -1.136962 H          1 UNL1 0.000
    29 H      -6.402596     5.127118     0.025045 H          1 UNL1 0.000
    30 H      -5.326347     2.941066     0.195544 H          1 UNL1 0.000
    31 H      -5.186121    -1.878654    -1.431992 H          1 UNL1 0.000
    32 H      -6.330042    -4.011581    -1.483858 H          1 UNL1 0.000
    33 H      -8.796652     0.041381    -0.058653 H          1 UNL1 0.000
    34 H      -8.414656    -5.349202    -1.269439 H          1 UNL1 0.000
    35 H     -10.828221    -5.463046    -0.784479 H          1 UNL1 0.000
    36 H     -12.063754    -3.416350    -0.122016 H          1 UNL1 0.000
    37 H     -10.883585    -1.261543     0.071413 H          1 UNL1 0.000
    38 H      -4.466561     1.054605    -2.779134 H          1 UNL1 0.000
    39 H      -2.012503     1.024114    -2.638639 H          1 UNL1 0.000
    40 H      -2.294298     0.027263     1.559997 H          1 UNL1 0.000
    41 H      -4.733212     0.041292     1.393129 H          1 UNL1 0.000
    42 H       0.017407     0.594377    -1.467135 H          1 UNL1 0.000
    43 H      -0.125186     0.389732     1.609129 H          1 UNL1 0.000
    44 C       1.747283     0.441525     0.543886 C          1 UNL1 0.000
    45 C       2.438613    -0.772975     0.546651 C          1 UNL1 0.000
    46 C       3.835765    -0.787860     0.532288 C          1 UNL1 0.000
    47 C       4.557027     0.411431     0.511701 C          1 UNL1 0.000
    48 C       3.859454     1.625871     0.494270 C          1 UNL1 0.000
    49 C       2.462357     1.641321     0.507707 C          1 UNL1 0.000
    50 C       6.056919     0.409784     0.529476 C          1 UNL1 0.000
    51 H       1.894731    -1.714331     0.569634 H          1 UNL1 0.000
    52 H       4.354641    -1.743532     0.545208 H          1 UNL1 0.000
    53 H       4.401562     2.568741     0.479245 H          1 UNL1 0.000
    54 H       1.937846     2.593788     0.503604 H          1 UNL1 0.000
    55 H       6.421298     0.881519     1.447870 H          1 UNL1 0.000
    56 H       6.447185     0.955342    -0.335475 H          1 UNL1 0.000
    57 H       6.458038    -0.608395     0.492175 H          1 UNL1 0.000
@<TRIPOS>BOND
     1      1      2   1
     2      1      3   1
     3      3      4   2
     4      4      5   1
     5      5      6   2
     6      6      7   1
     7      7      8   2
     8      8      3   1
     9      2      9   2
    10      9     10   1
    11     10     11   2
    12     11     12   1
    13     12     13   2
    14     13      2   1
    15     11     14   1
    16     14     15   2
    17     15     16   1
    18     16     17   2
    19     17     12   1
    20     18     19   2
    21     19     20   1
    22     20     21   2
    23     21     22   1
    24     22     23   2
    25     23     18   1
    26     21     24   1
    27     24     25   2
    28      1     18   1
    29      4     26   1
    30      5     27   1
    31      6     28   1
    32      7     29   1
    33      8     30   1
    34      9     31   1
    35     10     32   1
    36     13     33   1
    37     14     34   1
    38     15     35   1
    39     16     36   1
    40     17     37   1
    41     19     38   1
    42     20     39   1
    43     22     40   1
    44     23     41   1
    45     24     42   1
    46     25     43   1
    47     44     45   2
    48     45     46   1
    49     46     47   2
    50     47     48   1
    51     48     49   2
    52     49     44   1
    53     47     50   1
    54     45     51   1
    55     46     52   1
    56     48     53   1
    57     49     54   1
    58     50     55   1
    59     50     56   1
    60     50     57   1
    61     25     44   1
