# Produced with molli package
@<TRIPOS>MOLECULE
F_7_M
55 59 0 0 0
SMALL
USER_CHARGES

@<TRIPOS>ATOM
     1 N      -6.267488     0.546176    -0.726785 N          1 UNL1 0.000
     2 C      -6.953769    -0.735950    -0.656826 C          1 UNL1 0.000
     3 C      -6.914624     1.842019    -0.858326 C          1 UNL1 0.000
     4 C      -8.183265     2.014542    -1.436596 C          1 UNL1 0.000
     5 C      -8.812793     3.267097    -1.474088 C          1 UNL1 0.000
     6 C      -8.157873     4.397120    -0.997871 C          1 UNL1 0.000
     7 C      -6.868475     4.277310    -0.498395 C          1 UNL1 0.000
     8 C      -6.260477     3.018754    -0.427440 C          1 UNL1 0.000
     9 C      -6.253123    -1.941591    -0.870222 C          1 UNL1 0.000
    10 C      -6.895010    -3.186529    -0.879800 C          1 UNL1 0.000
    11 C      -8.278540    -3.274450    -0.711183 C          1 UNL1 0.000
    12 C      -9.007202    -2.096289    -0.454006 C          1 UNL1 0.000
    13 C      -8.324508    -0.862688    -0.368309 C          1 UNL1 0.000
    14 C      -8.952088    -4.503740    -0.805062 C          1 UNL1 0.000
    15 C     -10.340319    -4.564758    -0.683723 C          1 UNL1 0.000
    16 C     -11.066560    -3.401915    -0.446868 C          1 UNL1 0.000
    17 C     -10.403924    -2.179041    -0.317280 C          1 UNL1 0.000
    18 C      -4.826545     0.539237    -0.698875 C          1 UNL1 0.000
    19 C      -4.090406     0.597618    -1.889449 C          1 UNL1 0.000
    20 C      -2.690338     0.600087    -1.856328 C          1 UNL1 0.000
    21 C      -1.995440     0.566242    -0.636800 C          1 UNL1 0.000
    22 C      -2.744414     0.513095     0.549082 C          1 UNL1 0.000
    23 C      -4.142827     0.486521     0.520762 C          1 UNL1 0.000
    24 C      -0.517718     0.587120    -0.662317 C          1 UNL1 0.000
    25 C       0.277154     0.550307     0.418964 C          1 UNL1 0.000
    26 H      -8.709970     1.180764    -1.890399 H          1 UNL1 0.000
    27 H      -9.814865     3.356063    -1.885944 H          1 UNL1 0.000
    28 H      -8.642892     5.368798    -1.031402 H          1 UNL1 0.000
    29 H      -6.330481     5.156836    -0.154321 H          1 UNL1 0.000
    30 H      -5.256567     2.980041    -0.013235 H          1 UNL1 0.000
    31 H      -5.181499    -1.943210    -1.051948 H          1 UNL1 0.000
    32 H      -6.301144    -4.080768    -1.054434 H          1 UNL1 0.000
    33 H      -8.901873     0.007966    -0.073229 H          1 UNL1 0.000
    34 H      -8.399195    -5.421354    -0.993297 H          1 UNL1 0.000
    35 H     -10.853095    -5.517972    -0.782533 H          1 UNL1 0.000
    36 H     -12.149857    -3.444037    -0.368714 H          1 UNL1 0.000
    37 H     -10.991969    -1.281259    -0.139775 H          1 UNL1 0.000
    38 H      -4.610314     0.628123    -2.843927 H          1 UNL1 0.000
    39 H      -2.151099     0.631499    -2.800847 H          1 UNL1 0.000
    40 H      -2.263378     0.494959     1.521976 H          1 UNL1 0.000
    41 H      -4.702708     0.449988     1.451944 H          1 UNL1 0.000
    42 H      -0.063254     0.630061    -1.651084 H          1 UNL1 0.000
    43 H      -0.107686     0.502190     1.431759 H          1 UNL1 0.000
    44 C       1.737890     0.553780     0.336380 C          1 UNL1 0.000
    45 C       2.437459    -0.657359     0.356101 C          1 UNL1 0.000
    46 C       3.835141    -0.662690     0.375036 C          1 UNL1 0.000
    47 C       4.540965     0.544759     0.371795 C          1 UNL1 0.000
    48 C       3.842864     1.756343     0.325525 C          1 UNL1 0.000
    49 C       2.444383     1.760388     0.305478 C          1 UNL1 0.000
    50 C       5.974679     0.539810     0.437154 C          1 UNL1 0.000
    51 N       7.131518     0.534117     0.500742 N          1 UNL1 0.000
    52 H       1.898194    -1.602280     0.377962 H          1 UNL1 0.000
    53 H       4.364520    -1.613142     0.409197 H          1 UNL1 0.000
    54 H       4.379565     2.703389     0.322085 H          1 UNL1 0.000
    55 H       1.911748     2.709118     0.290033 H          1 UNL1 0.000
@<TRIPOS>BOND
     1      1      2   1
     2      1      3   1
     3      3      4   2
     4      4      5   1
     5      5      6   2
     6      6      7   1
     7      7      8   2
     8      8      3   1
     9      2      9   2
    10      9     10   1
    11     10     11   2
    12     11     12   1
    13     12     13   2
    14     13      2   1
    15     11     14   1
    16     14     15   2
    17     15     16   1
    18     16     17   2
    19     17     12   1
    20     18     19   2
    21     19     20   1
    22     20     21   2
    23     21     22   1
    24     22     23   2
    25     23     18   1
    26     21     24   1
    27     24     25   2
    28      1     18   1
    29      4     26   1
    30      5     27   1
    31      6     28   1
    32      7     29   1
    33      8     30   1
    34      9     31   1
    35     10     32   1
    36     13     33   1
    37     14     34   1
    38     15     35   1
    39     16     36   1
    40     17     37   1
    41     19     38   1
    42     20     39   1
    43     22     40   1
    44     23     41   1
    45     24     42   1
    46     25     43   1
    47     44     45   2
    48     45     46   1
    49     46     47   2
    50     47     48   1
    51     48     49   2
    52     49     44   1
    53     50     51   3
    54     47     50   1
    55     45     52   1
    56     46     53   1
    57     48     54   1
    58     49     55   1
    59     25     44   1
