# Produced with molli package
@<TRIPOS>MOLECULE
F_8_T
54 59 0 0 0
SMALL
USER_CHARGES

@<TRIPOS>ATOM
     1 N      -3.988639     0.514477     0.513139 N          1 UNL1 0.000
     2 C      -4.709822    -0.741795     0.439811 C          1 UNL1 0.000
     3 C      -4.619540     1.811402     0.645323 C          1 UNL1 0.000
     4 C      -5.824112     1.993463     1.346827 C          1 UNL1 0.000
     5 C      -6.441401     3.248012     1.425653 C          1 UNL1 0.000
     6 C      -5.842691     4.361264     0.844534 C          1 UNL1 0.000
     7 C      -4.623868     4.222617     0.191583 C          1 UNL1 0.000
     8 C      -4.022614     2.963683     0.092427 C          1 UNL1 0.000
     9 C      -4.070141    -1.963176     0.726031 C          1 UNL1 0.000
    10 C      -4.761341    -3.181039     0.711109 C          1 UNL1 0.000
    11 C      -6.130758    -3.220015     0.429660 C          1 UNL1 0.000
    12 C      -6.795064    -2.020295     0.108275 C          1 UNL1 0.000
    13 C      -6.067596    -0.812114     0.076000 C          1 UNL1 0.000
    14 C      -6.852431    -4.424983     0.468918 C          1 UNL1 0.000
    15 C      -8.224829    -4.439704     0.217165 C          1 UNL1 0.000
    16 C      -8.886366    -3.255236    -0.090141 C          1 UNL1 0.000
    17 C      -8.175466    -2.054823    -0.155010 C          1 UNL1 0.000
    18 C      -2.553227     0.482130     0.452179 C          1 UNL1 0.000
    19 C      -1.792176     0.591495     1.644316 C          1 UNL1 0.000
    20 C      -0.378598     0.567579     1.680207 C          1 UNL1 0.000
    21 C       0.423724     0.448441     0.525044 C          1 UNL1 0.000
    22 C      -0.278395     0.346920    -0.712808 C          1 UNL1 0.000
    23 C      -1.791191     0.357683    -0.749035 C          1 UNL1 0.000
    24 N       0.265795     0.245418    -1.939192 N          1 UNL1 0.000
    25 S      -0.985918     0.178994    -3.020540 S          1 UNL1 0.000
    26 N      -2.283316     0.267642    -1.997547 N          1 UNL1 0.000
    27 H      -6.301838     1.158847     1.853110 H          1 UNL1 0.000
    28 H      -7.390362     3.352192     1.945338 H          1 UNL1 0.000
    29 H      -6.321219     5.335051     0.904726 H          1 UNL1 0.000
    30 H      -4.140816     5.088351    -0.254148 H          1 UNL1 0.000
    31 H      -3.085667     2.898160    -0.453749 H          1 UNL1 0.000
    32 H      -3.016079    -1.997475     0.986374 H          1 UNL1 0.000
    33 H      -4.219642    -4.094505     0.943843 H          1 UNL1 0.000
    34 H      -6.587763     0.087168    -0.242169 H          1 UNL1 0.000
    35 H      -6.350985    -5.359604     0.708009 H          1 UNL1 0.000
    36 H      -8.775632    -5.375467     0.265495 H          1 UNL1 0.000
    37 H      -9.957059    -3.262475    -0.277291 H          1 UNL1 0.000
    38 H      -8.711592    -1.139317    -0.393546 H          1 UNL1 0.000
    39 H      -2.329490     0.686461     2.589608 H          1 UNL1 0.000
    40 H       0.111238     0.645379     2.652482 H          1 UNL1 0.000
    41 C       1.881827     0.448179     0.569977 C          1 UNL1 0.000
    42 C       2.603679    -0.752479     0.521118 C          1 UNL1 0.000
    43 C       4.001886    -0.749041     0.537071 C          1 UNL1 0.000
    44 C       4.706635     0.456907     0.603241 C          1 UNL1 0.000
    45 C       3.991907     1.658021     0.663989 C          1 UNL1 0.000
    46 C       2.594250     1.652822     0.650862 C          1 UNL1 0.000
    47 C       6.206171     0.478119     0.585748 C          1 UNL1 0.000
    48 H       2.079020    -1.703282     0.454550 H          1 UNL1 0.000
    49 H       4.533541    -1.696343     0.484832 H          1 UNL1 0.000
    50 H       4.519772     2.607986     0.708823 H          1 UNL1 0.000
    51 H       2.062522     2.601425     0.683392 H          1 UNL1 0.000
    52 H       6.588335     0.983960     1.478068 H          1 UNL1 0.000
    53 H       6.563524     1.002409    -0.306578 H          1 UNL1 0.000
    54 H       6.622456    -0.534469     0.569953 H          1 UNL1 0.000
@<TRIPOS>BOND
     1      1      2   1
     2      1      3   1
     3      3      4   2
     4      4      5   1
     5      5      6   2
     6      6      7   1
     7      7      8   2
     8      8      3   1
     9      2      9   2
    10      9     10   1
    11     10     11   2
    12     11     12   1
    13     12     13   2
    14     13      2   1
    15     11     14   1
    16     14     15   2
    17     15     16   1
    18     16     17   2
    19     17     12   1
    20     18     19   2
    21     19     20   1
    22     20     21   2
    23     21     22   1
    24     22     23   1
    25     23     18   1
    26     22     24   2
    27     24     25   1
    28     25     26   1
    29     26     23   2
    30      1     18   1
    31      4     27   1
    32      5     28   1
    33      6     29   1
    34      7     30   1
    35      8     31   1
    36      9     32   1
    37     10     33   1
    38     13     34   1
    39     14     35   1
    40     15     36   1
    41     16     37   1
    42     17     38   1
    43     19     39   1
    44     20     40   1
    45     41     42   2
    46     42     43   1
    47     43     44   2
    48     44     45   1
    49     45     46   2
    50     46     41   1
    51     44     47   1
    52     42     48   1
    53     43     49   1
    54     45     50   1
    55     46     51   1
    56     47     52   1
    57     47     53   1
    58     47     54   1
    59     21     41   1
