# Produced with molli package
@<TRIPOS>MOLECULE
F_8_M
52 57 0 0 0
SMALL
USER_CHARGES

@<TRIPOS>ATOM
     1 N      -4.048238     0.479891     0.484524 N          1 UNL1 0.000
     2 C      -4.757639    -0.789521     0.455207 C          1 UNL1 0.000
     3 C      -4.670008     1.790129     0.573670 C          1 UNL1 0.000
     4 C      -5.916162     2.009118     1.183990 C          1 UNL1 0.000
     5 C      -6.523525     3.272915     1.185011 C          1 UNL1 0.000
     6 C      -5.865327     4.369412     0.639512 C          1 UNL1 0.000
     7 C      -4.595704     4.205137     0.103633 C          1 UNL1 0.000
     8 C      -4.012215     2.934015     0.066860 C          1 UNL1 0.000
     9 C      -4.077250    -2.003913     0.683876 C          1 UNL1 0.000
    10 C      -4.742994    -3.236458     0.721443 C          1 UNL1 0.000
    11 C      -6.130295    -3.301659     0.570487 C          1 UNL1 0.000
    12 C      -6.840420    -2.113248     0.310308 C          1 UNL1 0.000
    13 C      -6.135940    -0.894742     0.195650 C          1 UNL1 0.000
    14 C      -6.825821    -4.517480     0.682260 C          1 UNL1 0.000
    15 C      -8.216505    -4.553522     0.577801 C          1 UNL1 0.000
    16 C      -8.924105    -3.378871     0.343091 C          1 UNL1 0.000
    17 C      -8.240267    -2.170069     0.195114 C          1 UNL1 0.000
    18 C      -2.610441     0.449541     0.416031 C          1 UNL1 0.000
    19 C      -1.844823     0.573528     1.604342 C          1 UNL1 0.000
    20 C      -0.430917     0.577125     1.632537 C          1 UNL1 0.000
    21 C       0.367141     0.473720     0.472968 C          1 UNL1 0.000
    22 C      -0.339085     0.355593    -0.760697 C          1 UNL1 0.000
    23 C      -1.852213     0.335531    -0.789409 C          1 UNL1 0.000
    24 N       0.202968     0.261066    -1.988437 N          1 UNL1 0.000
    25 S      -1.053422     0.164222    -3.064145 S          1 UNL1 0.000
    26 N      -2.347397     0.231141    -2.035135 N          1 UNL1 0.000
    27 H      -6.443471     1.203076     1.685279 H          1 UNL1 0.000
    28 H      -7.512463     3.397084     1.618974 H          1 UNL1 0.000
    29 H      -6.334626     5.349393     0.641406 H          1 UNL1 0.000
    30 H      -4.057809     5.058247    -0.301762 H          1 UNL1 0.000
    31 H      -3.030957     2.859075    -0.392606 H          1 UNL1 0.000
    32 H      -3.004439    -2.025451     0.851521 H          1 UNL1 0.000
    33 H      -4.164786    -4.140314     0.899469 H          1 UNL1 0.000
    34 H      -6.701555    -0.018445    -0.105566 H          1 UNL1 0.000
    35 H      -6.288080    -5.444531     0.867944 H          1 UNL1 0.000
    36 H      -8.745755    -5.496582     0.686749 H          1 UNL1 0.000
    37 H     -10.008862    -3.400935     0.278183 H          1 UNL1 0.000
    38 H      -8.813140    -1.262648     0.016872 H          1 UNL1 0.000
    39 H      -2.379286     0.664357     2.551836 H          1 UNL1 0.000
    40 H       0.061092     0.668338     2.602559 H          1 UNL1 0.000
    41 C       1.825300     0.489141     0.513762 C          1 UNL1 0.000
    42 C       2.550198    -0.708333     0.608716 C          1 UNL1 0.000
    43 C       3.948182    -0.697944     0.644106 C          1 UNL1 0.000
    44 C       4.642151     0.513753     0.585744 C          1 UNL1 0.000
    45 C       3.931144     1.713658     0.494762 C          1 UNL1 0.000
    46 C       2.532746     1.699897     0.460365 C          1 UNL1 0.000
    47 C       6.075044     0.524839     0.617605 C          1 UNL1 0.000
    48 N       7.235867     0.532837     0.647588 N          1 UNL1 0.000
    49 H       2.026595    -1.662134     0.645420 H          1 UNL1 0.000
    50 H       4.486987    -1.641275     0.711186 H          1 UNL1 0.000
    51 H       4.457035     2.665357     0.443974 H          1 UNL1 0.000
    52 H       1.995962     2.643713     0.379652 H          1 UNL1 0.000
@<TRIPOS>BOND
     1      1      2   1
     2      1      3   1
     3      3      4   2
     4      4      5   1
     5      5      6   2
     6      6      7   1
     7      7      8   2
     8      8      3   1
     9      2      9   2
    10      9     10   1
    11     10     11   2
    12     11     12   1
    13     12     13   2
    14     13      2   1
    15     11     14   1
    16     14     15   2
    17     15     16   1
    18     16     17   2
    19     17     12   1
    20     18     19   2
    21     19     20   1
    22     20     21   2
    23     21     22   1
    24     22     23   1
    25     23     18   1
    26     22     24   2
    27     24     25   1
    28     25     26   1
    29     26     23   2
    30      1     18   1
    31      4     27   1
    32      5     28   1
    33      6     29   1
    34      7     30   1
    35      8     31   1
    36      9     32   1
    37     10     33   1
    38     13     34   1
    39     14     35   1
    40     15     36   1
    41     16     37   1
    42     17     38   1
    43     19     39   1
    44     20     40   1
    45     41     42   2
    46     42     43   1
    47     43     44   2
    48     44     45   1
    49     45     46   2
    50     46     41   1
    51     47     48   3
    52     44     47   1
    53     42     49   1
    54     43     50   1
    55     45     51   1
    56     46     52   1
    57     21     41   1
