# Produced with molli package
@<TRIPOS>MOLECULE
F_8_R
52 57 0 0 0
SMALL
USER_CHARGES

@<TRIPOS>ATOM
     1 N      -3.988926     0.424772     0.532276 N          1 UNL1 0.000
     2 C      -4.695831    -0.844568     0.501483 C          1 UNL1 0.000
     3 C      -4.611937     1.731843     0.669383 C          1 UNL1 0.000
     4 C      -5.878530     1.920541     1.248279 C          1 UNL1 0.000
     5 C      -6.475329     3.187727     1.322557 C          1 UNL1 0.000
     6 C      -5.792281     4.314102     0.878656 C          1 UNL1 0.000
     7 C      -4.509994     4.174871     0.367549 C          1 UNL1 0.000
     8 C      -3.934325     2.903583     0.260679 C          1 UNL1 0.000
     9 C      -4.031706    -2.051007     0.804847 C          1 UNL1 0.000
    10 C      -4.703884    -3.278215     0.856747 C          1 UNL1 0.000
    11 C      -6.079612    -3.345638     0.627656 C          1 UNL1 0.000
    12 C      -6.768520    -2.168526     0.272269 C          1 UNL1 0.000
    13 C      -6.056072    -0.954233     0.161631 C          1 UNL1 0.000
    14 C      -6.783106    -4.554887     0.752501 C          1 UNL1 0.000
    15 C      -8.163248    -4.597209     0.556727 C          1 UNL1 0.000
    16 C      -8.850216    -3.436300     0.215570 C          1 UNL1 0.000
    17 C      -8.156598    -2.233508     0.061240 C          1 UNL1 0.000
    18 C      -2.552151     0.391239     0.461555 C          1 UNL1 0.000
    19 C      -1.786266     0.363663     1.656229 C          1 UNL1 0.000
    20 C      -0.373288     0.361727     1.683099 C          1 UNL1 0.000
    21 C       0.421113     0.425761     0.518230 C          1 UNL1 0.000
    22 C      -0.283398     0.464482    -0.718686 C          1 UNL1 0.000
    23 C      -1.795180     0.429898    -0.749338 C          1 UNL1 0.000
    24 N       0.256861     0.558507    -1.947831 N          1 UNL1 0.000
    25 S      -0.999184     0.550053    -3.028492 S          1 UNL1 0.000
    26 N      -2.291514     0.478579    -1.998158 N          1 UNL1 0.000
    27 H      -6.430781     1.088488     1.673979 H          1 UNL1 0.000
    28 H      -7.475049     3.290440     1.737010 H          1 UNL1 0.000
    29 H      -6.252181     5.296539     0.940741 H          1 UNL1 0.000
    30 H      -3.953812     5.049126     0.039096 H          1 UNL1 0.000
    31 H      -2.939185     2.856692    -0.170374 H          1 UNL1 0.000
    32 H      -2.969444    -2.070244     1.029493 H          1 UNL1 0.000
    33 H      -4.140352    -4.174618     1.105726 H          1 UNL1 0.000
    34 H      -6.595323    -0.082529    -0.198591 H          1 UNL1 0.000
    35 H      -6.260609    -5.470906     1.019190 H          1 UNL1 0.000
    36 H      -8.700262    -5.534595     0.675784 H          1 UNL1 0.000
    37 H      -9.927402    -3.464367     0.073548 H          1 UNL1 0.000
    38 H      -8.714162    -1.336910    -0.200355 H          1 UNL1 0.000
    39 H      -2.320786     0.331832     2.607525 H          1 UNL1 0.000
    40 H       0.122420     0.316758     2.654330 H          1 UNL1 0.000
    41 C       1.872319     0.473717     0.548152 C          1 UNL1 0.000
    42 N       2.499438    -0.725948     0.659907 N          1 UNL1 0.000
    43 C       3.855431    -0.725042     0.648762 C          1 UNL1 0.000
    44 C       4.603120     0.437341     0.575022 C          1 UNL1 0.000
    45 C       3.958668     1.669858     0.501205 C          1 UNL1 0.000
    46 C       2.565512     1.684617     0.478325 C          1 UNL1 0.000
    47 N       6.046879     0.356885     0.579199 N          1 UNL1 0.000
    48 O       6.661777     1.245160     1.186668 O          1 UNL1 0.000
    49 O       6.567389    -0.590012    -0.022642 O          1 UNL1 0.000
    50 H       4.314194    -1.708664     0.708165 H          1 UNL1 0.000
    51 H       4.516809     2.600917     0.445860 H          1 UNL1 0.000
    52 H       2.028908     2.625854     0.399101 H          1 UNL1 0.000
@<TRIPOS>BOND
     1      1      2   1
     2      1      3   1
     3      3      4   2
     4      4      5   1
     5      5      6   2
     6      6      7   1
     7      7      8   2
     8      8      3   1
     9      2      9   2
    10      9     10   1
    11     10     11   2
    12     11     12   1
    13     12     13   2
    14     13      2   1
    15     11     14   1
    16     14     15   2
    17     15     16   1
    18     16     17   2
    19     17     12   1
    20     18     19   2
    21     19     20   1
    22     20     21   2
    23     21     22   1
    24     22     23   1
    25     23     18   1
    26     22     24   2
    27     24     25   1
    28     25     26   1
    29     26     23   2
    30      1     18   1
    31      4     27   1
    32      5     28   1
    33      6     29   1
    34      7     30   1
    35      8     31   1
    36      9     32   1
    37     10     33   1
    38     13     34   1
    39     14     35   1
    40     15     36   1
    41     16     37   1
    42     17     38   1
    43     19     39   1
    44     20     40   1
    45     41     42   2
    46     42     43   1
    47     43     44   2
    48     44     45   1
    49     45     46   2
    50     46     41   1
    51     47     48   2
    52     47     49   1
    53     44     47   1
    54     43     50   1
    55     45     51   1
    56     46     52   1
    57     21     41   1
