# Produced with molli package
@<TRIPOS>MOLECULE
F_8_K
53 58 0 0 0
SMALL
USER_CHARGES

@<TRIPOS>ATOM
     1 N      -4.022794     0.452051     0.480652 N          1 UNL1 0.000
     2 C      -4.696604    -0.830624     0.478202 C          1 UNL1 0.000
     3 C      -4.697011     1.723429     0.626498 C          1 UNL1 0.000
     4 C      -5.862192     1.870095     1.398500 C          1 UNL1 0.000
     5 C      -6.503745     3.108513     1.519915 C          1 UNL1 0.000
     6 C      -5.974118     4.236204     0.899675 C          1 UNL1 0.000
     7 C      -4.802820     4.127734     0.158980 C          1 UNL1 0.000
     8 C      -4.174604     2.886000     0.022833 C          1 UNL1 0.000
     9 C      -4.009682    -2.010975     0.821992 C          1 UNL1 0.000
    10 C      -4.654599    -3.251900     0.871022 C          1 UNL1 0.000
    11 C      -6.019736    -3.357223     0.590377 C          1 UNL1 0.000
    12 C      -6.731421    -2.199594     0.212485 C          1 UNL1 0.000
    13 C      -6.053017    -0.965667     0.129290 C          1 UNL1 0.000
    14 C      -6.691358    -4.587074     0.683313 C          1 UNL1 0.000
    15 C      -8.058990    -4.671684     0.422879 C          1 UNL1 0.000
    16 C      -8.766480    -3.531223     0.055447 C          1 UNL1 0.000
    17 C      -8.106399    -2.305468    -0.057165 C          1 UNL1 0.000
    18 C      -2.588645     0.471897     0.404394 C          1 UNL1 0.000
    19 C      -1.823435     0.674182     1.581256 C          1 UNL1 0.000
    20 C      -0.410392     0.679956     1.609696 C          1 UNL1 0.000
    21 C       0.390144     0.497893     0.460818 C          1 UNL1 0.000
    22 C      -0.318319     0.312745    -0.764731 C          1 UNL1 0.000
    23 C      -1.831489     0.294821    -0.792523 C          1 UNL1 0.000
    24 N       0.222660     0.148738    -1.985936 N          1 UNL1 0.000
    25 S      -1.033947     0.000300    -3.055182 S          1 UNL1 0.000
    26 N      -2.327213     0.122326    -2.030540 N          1 UNL1 0.000
    27 H      -6.282929     1.022172     1.932606 H          1 UNL1 0.000
    28 H      -7.415784     3.190023     2.105644 H          1 UNL1 0.000
    29 H      -6.470636     5.198112     0.996272 H          1 UNL1 0.000
    30 H      -4.377714     5.004582    -0.322663 H          1 UNL1 0.000
    31 H      -3.276591     2.838261    -0.587464 H          1 UNL1 0.000
    32 H      -2.955233    -1.991688     1.081228 H          1 UNL1 0.000
    33 H      -4.078959    -4.131662     1.149525 H          1 UNL1 0.000
    34 H      -6.607234    -0.097007    -0.218066 H          1 UNL1 0.000
    35 H      -6.153265    -5.488125     0.969138 H          1 UNL1 0.000
    36 H      -8.570313    -5.626795     0.509682 H          1 UNL1 0.000
    37 H      -9.833437    -3.593562    -0.141947 H          1 UNL1 0.000
    38 H      -8.678637    -1.425642    -0.343066 H          1 UNL1 0.000
    39 H      -2.357910     0.811738     2.523147 H          1 UNL1 0.000
    40 H       0.078185     0.820659     2.575524 H          1 UNL1 0.000
    41 C       1.850709     0.505339     0.505183 C          1 UNL1 0.000
    42 C       2.584594    -0.663714     0.237402 C          1 UNL1 0.000
    43 C       3.981903    -0.660152     0.270727 C          1 UNL1 0.000
    44 C       4.656677     0.525627     0.576511 C          1 UNL1 0.000
    45 C       3.948531     1.700278     0.854455 C          1 UNL1 0.000
    46 C       2.550910     1.682822     0.819383 C          1 UNL1 0.000
    47 N       6.121071     0.540974     0.604675 N          1 UNL1 0.000
    48 O       6.716366    -0.377986     0.020528 O          1 UNL1 0.000
    49 O       6.674533     1.466516     1.211702 O          1 UNL1 0.000
    50 H       2.065351    -1.589371    -0.008250 H          1 UNL1 0.000
    51 H       4.521996    -1.579765     0.054940 H          1 UNL1 0.000
    52 H       4.464245     2.629632     1.086381 H          1 UNL1 0.000
    53 H       2.006850     2.604449     1.021698 H          1 UNL1 0.000
@<TRIPOS>BOND
     1      1      2   1
     2      1      3   1
     3      3      4   2
     4      4      5   1
     5      5      6   2
     6      6      7   1
     7      7      8   2
     8      8      3   1
     9      2      9   2
    10      9     10   1
    11     10     11   2
    12     11     12   1
    13     12     13   2
    14     13      2   1
    15     11     14   1
    16     14     15   2
    17     15     16   1
    18     16     17   2
    19     17     12   1
    20     18     19   2
    21     19     20   1
    22     20     21   2
    23     21     22   1
    24     22     23   1
    25     23     18   1
    26     22     24   2
    27     24     25   1
    28     25     26   1
    29     26     23   2
    30      1     18   1
    31      4     27   1
    32      5     28   1
    33      6     29   1
    34      7     30   1
    35      8     31   1
    36      9     32   1
    37     10     33   1
    38     13     34   1
    39     14     35   1
    40     15     36   1
    41     16     37   1
    42     17     38   1
    43     19     39   1
    44     20     40   1
    45     41     42   2
    46     42     43   1
    47     43     44   2
    48     44     45   1
    49     45     46   2
    50     46     41   1
    51     47     48   2
    52     47     49   1
    53     44     47   1
    54     42     50   1
    55     43     51   1
    56     45     52   1
    57     46     53   1
    58     21     41   1
