# Produced with molli package
@<TRIPOS>MOLECULE
F_8_P
55 60 0 0 0
SMALL
USER_CHARGES

@<TRIPOS>ATOM
     1 N      -4.002055     0.562963     0.559317 N          1 UNL1 0.000
     2 C      -4.694410    -0.714042     0.592139 C          1 UNL1 0.000
     3 C      -4.647504     1.856376     0.444869 C          1 UNL1 0.000
     4 C      -5.864737     2.045705    -0.229618 C          1 UNL1 0.000
     5 C      -6.485971     3.300717    -0.280999 C          1 UNL1 0.000
     6 C      -5.875745     4.410446     0.294714 C          1 UNL1 0.000
     7 C      -4.640097     4.268450     0.913032 C          1 UNL1 0.000
     8 C      -4.037751     3.008229     0.988902 C          1 UNL1 0.000
     9 C      -4.004418    -1.920123     0.350885 C          1 UNL1 0.000
    10 C      -4.654512    -3.160041     0.336809 C          1 UNL1 0.000
    11 C      -6.034221    -3.242585     0.533317 C          1 UNL1 0.000
    12 C      -6.754832    -2.061521     0.805049 C          1 UNL1 0.000
    13 C      -6.066252    -0.831128     0.882100 C          1 UNL1 0.000
    14 C      -6.712247    -4.469792     0.453573 C          1 UNL1 0.000
    15 C      -8.096893    -4.528378     0.608358 C          1 UNL1 0.000
    16 C      -8.815493    -3.363481     0.859426 C          1 UNL1 0.000
    17 C      -8.148251    -2.141257     0.969507 C          1 UNL1 0.000
    18 C      -2.566476     0.558263     0.475633 C          1 UNL1 0.000
    19 C      -1.784089     0.457147     1.653948 C          1 UNL1 0.000
    20 C      -0.369912     0.461769     1.659708 C          1 UNL1 0.000
    21 C       0.409966     0.548723     0.486032 C          1 UNL1 0.000
    22 C      -0.315209     0.629783    -0.739849 C          1 UNL1 0.000
    23 C      -1.827869     0.640129    -0.745301 C          1 UNL1 0.000
    24 N       0.206403     0.693905    -1.978346 N          1 UNL1 0.000
    25 S      -1.065885     0.752725    -3.036329 S          1 UNL1 0.000
    26 N      -2.343584     0.707252    -1.985869 N          1 UNL1 0.000
    27 H      -6.344295     1.222206    -0.751441 H          1 UNL1 0.000
    28 H      -7.443305     3.409442    -0.784198 H          1 UNL1 0.000
    29 H      -6.353885     5.385123     0.247864 H          1 UNL1 0.000
    30 H      -4.141169     5.133535     1.342018 H          1 UNL1 0.000
    31 H      -3.080228     2.943642     1.497364 H          1 UNL1 0.000
    32 H      -2.937744    -1.928690     0.146947 H          1 UNL1 0.000
    33 H      -4.069840    -4.055940     0.139516 H          1 UNL1 0.000
    34 H      -6.637543     0.047299     1.168701 H          1 UNL1 0.000
    35 H      -6.165411    -5.388713     0.253188 H          1 UNL1 0.000
    36 H      -8.613191    -5.481021     0.524555 H          1 UNL1 0.000
    37 H      -9.896462    -3.403969     0.964407 H          1 UNL1 0.000
    38 H      -8.730421    -1.241862     1.158895 H          1 UNL1 0.000
    39 H      -2.304593     0.386309     2.610507 H          1 UNL1 0.000
    40 H       0.138748     0.393653     2.622812 H          1 UNL1 0.000
    41 C       1.868627     0.531185     0.501176 C          1 UNL1 0.000
    42 C       2.605526     1.727125     0.500967 C          1 UNL1 0.000
    43 C       4.003570     1.705089     0.489853 C          1 UNL1 0.000
    44 C       4.671004     0.483253     0.489673 C          1 UNL1 0.000
    45 C       3.959834    -0.712406     0.475845 C          1 UNL1 0.000
    46 C       2.564230    -0.688150     0.493958 C          1 UNL1 0.000
    47 O       6.035143     0.423171     0.416927 O          1 UNL1 0.000
    48 C       6.619569     0.728812     1.681889 C          1 UNL1 0.000
    49 H       2.091112     2.685870     0.484753 H          1 UNL1 0.000
    50 H       4.560758     2.636372     0.455778 H          1 UNL1 0.000
    51 H       4.489634    -1.659661     0.442233 H          1 UNL1 0.000
    52 H       2.019556    -1.629578     0.476945 H          1 UNL1 0.000
    53 H       7.663294     0.401134     1.653968 H          1 UNL1 0.000
    54 H       6.122186     0.196374     2.501011 H          1 UNL1 0.000
    55 H       6.605479     1.808264     1.862821 H          1 UNL1 0.000
@<TRIPOS>BOND
     1      1      2   1
     2      1      3   1
     3      3      4   2
     4      4      5   1
     5      5      6   2
     6      6      7   1
     7      7      8   2
     8      8      3   1
     9      2      9   2
    10      9     10   1
    11     10     11   2
    12     11     12   1
    13     12     13   2
    14     13      2   1
    15     11     14   1
    16     14     15   2
    17     15     16   1
    18     16     17   2
    19     17     12   1
    20     18     19   2
    21     19     20   1
    22     20     21   2
    23     21     22   1
    24     22     23   1
    25     23     18   1
    26     22     24   2
    27     24     25   1
    28     25     26   1
    29     26     23   2
    30      1     18   1
    31      4     27   1
    32      5     28   1
    33      6     29   1
    34      7     30   1
    35      8     31   1
    36      9     32   1
    37     10     33   1
    38     13     34   1
    39     14     35   1
    40     15     36   1
    41     16     37   1
    42     17     38   1
    43     19     39   1
    44     20     40   1
    45     41     42   2
    46     42     43   1
    47     43     44   2
    48     44     45   1
    49     45     46   2
    50     46     41   1
    51     47     48   1
    52     44     47   1
    53     42     49   1
    54     43     50   1
    55     45     51   1
    56     46     52   1
    57     48     53   1
    58     48     54   1
    59     48     55   1
    60     21     41   1
