# Produced with molli package
@<TRIPOS>MOLECULE
F_8_Q
49 54 0 0 0
SMALL
USER_CHARGES

@<TRIPOS>ATOM
     1 N      -4.039791     0.512480     0.426190 N          1 UNL1 0.000
     2 C      -4.727087    -0.766731     0.434754 C          1 UNL1 0.000
     3 C      -4.696638     1.800458     0.545777 C          1 UNL1 0.000
     4 C      -5.903744     1.969644     1.246643 C          1 UNL1 0.000
     5 C      -6.537271     3.216982     1.327636 C          1 UNL1 0.000
     6 C      -5.953104     4.339437     0.750571 C          1 UNL1 0.000
     7 C      -4.733538     4.216409     0.097882 C          1 UNL1 0.000
     8 C      -4.117546     2.964199    -0.004009 C          1 UNL1 0.000
     9 C      -4.045619    -1.957776     0.756568 C          1 UNL1 0.000
    10 C      -4.702507    -3.191772     0.828218 C          1 UNL1 0.000
    11 C      -6.075340    -3.283479     0.590777 C          1 UNL1 0.000
    12 C      -6.782437    -2.119812     0.221599 C          1 UNL1 0.000
    13 C      -6.089826    -0.895387     0.108678 C          1 UNL1 0.000
    14 C      -6.759335    -4.503211     0.716295 C          1 UNL1 0.000
    15 C      -8.135056    -4.572818     0.499825 C          1 UNL1 0.000
    16 C      -8.838608    -3.426680     0.141424 C          1 UNL1 0.000
    17 C      -8.165736    -2.211630    -0.006166 C          1 UNL1 0.000
    18 C      -2.603147     0.510695     0.364460 C          1 UNL1 0.000
    19 C      -1.845433     0.484622     1.564022 C          1 UNL1 0.000
    20 C      -0.432733     0.460141     1.600923 C          1 UNL1 0.000
    21 C       0.373263     0.505999     0.442825 C          1 UNL1 0.000
    22 C      -0.323013     0.557489    -0.797525 C          1 UNL1 0.000
    23 C      -1.835644     0.540879    -0.839654 C          1 UNL1 0.000
    24 N       0.227539     0.634849    -2.022730 N          1 UNL1 0.000
    25 S      -1.019593     0.637038    -3.113530 S          1 UNL1 0.000
    26 N      -2.320921     0.583611    -2.093287 N          1 UNL1 0.000
    27 H      -6.370996     1.133551     1.759574 H          1 UNL1 0.000
    28 H      -7.486352     3.308546     1.849544 H          1 UNL1 0.000
    29 H      -6.442024     5.307701     0.815399 H          1 UNL1 0.000
    30 H      -4.259199     5.089062    -0.343880 H          1 UNL1 0.000
    31 H      -3.179298     2.919511    -0.548230 H          1 UNL1 0.000
    32 H      -2.982889    -1.958606     0.978756 H          1 UNL1 0.000
    33 H      -4.127168    -4.076804     1.092116 H          1 UNL1 0.000
    34 H      -6.643404    -0.028697    -0.244503 H          1 UNL1 0.000
    35 H      -6.223641    -5.408251     0.995421 H          1 UNL1 0.000
    36 H      -8.655910    -5.519751     0.613971 H          1 UNL1 0.000
    37 H      -9.912023    -3.476691    -0.020633 H          1 UNL1 0.000
    38 H      -8.735570    -1.326965    -0.283055 H          1 UNL1 0.000
    39 H      -2.386008     0.458289     2.512032 H          1 UNL1 0.000
    40 H       0.055447     0.404624     2.575837 H          1 UNL1 0.000
    41 C       1.823898     0.490776     0.486177 C          1 UNL1 0.000
    42 N       2.399104    -0.691651     0.825583 N          1 UNL1 0.000
    43 C       3.752510    -0.701286     0.846152 C          1 UNL1 0.000
    44 C       4.510678     0.426978     0.582414 C          1 UNL1 0.000
    45 N       3.952160     1.618289     0.276422 N          1 UNL1 0.000
    46 C       2.596882     1.619826     0.222937 C          1 UNL1 0.000
    47 H       4.216880    -1.652575     1.079606 H          1 UNL1 0.000
    48 H       5.593984     0.401641     0.608893 H          1 UNL1 0.000
    49 H       2.143075     2.571942    -0.031386 H          1 UNL1 0.000
@<TRIPOS>BOND
     1      1      2   1
     2      1      3   1
     3      3      4   2
     4      4      5   1
     5      5      6   2
     6      6      7   1
     7      7      8   2
     8      8      3   1
     9      2      9   2
    10      9     10   1
    11     10     11   2
    12     11     12   1
    13     12     13   2
    14     13      2   1
    15     11     14   1
    16     14     15   2
    17     15     16   1
    18     16     17   2
    19     17     12   1
    20     18     19   2
    21     19     20   1
    22     20     21   2
    23     21     22   1
    24     22     23   1
    25     23     18   1
    26     22     24   2
    27     24     25   1
    28     25     26   1
    29     26     23   2
    30      1     18   1
    31      4     27   1
    32      5     28   1
    33      6     29   1
    34      7     30   1
    35      8     31   1
    36      9     32   1
    37     10     33   1
    38     13     34   1
    39     14     35   1
    40     15     36   1
    41     16     37   1
    42     17     38   1
    43     19     39   1
    44     20     40   1
    45     41     42   2
    46     42     43   1
    47     43     44   2
    48     44     45   1
    49     45     46   2
    50     46     41   1
    51     43     47   1
    52     44     48   1
    53     46     49   1
    54     21     41   1
