# Produced with molli package
@<TRIPOS>MOLECULE
F_8_S
56 61 0 0 0
SMALL
USER_CHARGES

@<TRIPOS>ATOM
     1 N      -4.041584     0.553922     0.426557 N          1 UNL1 0.000
     2 C      -4.720341    -0.731624     0.427583 C          1 UNL1 0.000
     3 C      -4.677366     1.860516     0.487753 C          1 UNL1 0.000
     4 C      -5.987747     2.063779     0.949425 C          1 UNL1 0.000
     5 C      -6.579606     3.336640     0.955662 C          1 UNL1 0.000
     6 C      -5.853234     4.455022     0.562339 C          1 UNL1 0.000
     7 C      -4.533854     4.302506     0.163929 C          1 UNL1 0.000
     8 C      -3.962297     3.025936     0.119239 C          1 UNL1 0.000
     9 C      -4.032999    -1.901637     0.817624 C          1 UNL1 0.000
    10 C      -4.658808    -3.151633     0.879700 C          1 UNL1 0.000
    11 C      -6.015229    -3.280379     0.580916 C          1 UNL1 0.000
    12 C      -6.730436    -2.142055     0.155216 C          1 UNL1 0.000
    13 C      -6.059023    -0.902747     0.035390 C          1 UNL1 0.000
    14 C      -6.672007    -4.515601     0.704503 C          1 UNL1 0.000
    15 C      -8.036366    -4.623457     0.439807 C          1 UNL1 0.000
    16 C      -8.752564    -3.501922     0.033573 C          1 UNL1 0.000
    17 C      -8.102814    -2.273922    -0.120217 C          1 UNL1 0.000
    18 C      -2.603659     0.532548     0.367707 C          1 UNL1 0.000
    19 C      -1.844341     0.668603     1.559048 C          1 UNL1 0.000
    20 C      -0.431590     0.670469     1.593153 C          1 UNL1 0.000
    21 C       0.370120     0.552018     0.437413 C          1 UNL1 0.000
    22 C      -0.331647     0.424917    -0.799239 C          1 UNL1 0.000
    23 C      -1.842900     0.408647    -0.834350 C          1 UNL1 0.000
    24 N       0.214551     0.324184    -2.024815 N          1 UNL1 0.000
    25 S      -1.037084     0.221725    -3.104827 S          1 UNL1 0.000
    26 N      -2.334574     0.297755    -2.080994 N          1 UNL1 0.000
    27 H      -6.582513     1.244174     1.338376 H          1 UNL1 0.000
    28 H      -7.610843     3.450877     1.280324 H          1 UNL1 0.000
    29 H      -6.308947     5.441254     0.576980 H          1 UNL1 0.000
    30 H      -3.943576     5.169248    -0.122295 H          1 UNL1 0.000
    31 H      -2.933151     2.969586    -0.223703 H          1 UNL1 0.000
    32 H      -2.985120    -1.871298     1.101171 H          1 UNL1 0.000
    33 H      -4.075387    -4.015865     1.188850 H          1 UNL1 0.000
    34 H      -6.611473    -0.067611    -0.385292 H          1 UNL1 0.000
    35 H      -6.125407    -5.401043     1.021711 H          1 UNL1 0.000
    36 H      -8.538122    -5.580573     0.555993 H          1 UNL1 0.000
    37 H      -9.818931    -3.580903    -0.161311 H          1 UNL1 0.000
    38 H      -8.684200    -1.410246    -0.435014 H          1 UNL1 0.000
    39 H      -2.384424     0.765701     2.502707 H          1 UNL1 0.000
    40 H       0.056237     0.764786     2.564820 H          1 UNL1 0.000
    41 C       1.828357     0.573736     0.477791 C          1 UNL1 0.000
    42 C       2.568451    -0.602878     0.302714 C          1 UNL1 0.000
    43 C       3.966144    -0.574123     0.302740 C          1 UNL1 0.000
    44 C       4.653501     0.633586     0.477859 C          1 UNL1 0.000
    45 C       3.922996     1.809022     0.678980 C          1 UNL1 0.000
    46 C       2.522624     1.776207     0.677612 C          1 UNL1 0.000
    47 C       6.147616     0.606190     0.434869 C          1 UNL1 0.000
    48 C       6.917348     1.897488     0.547611 C          1 UNL1 0.000
    49 O       6.734652    -0.466771     0.333767 O          1 UNL1 0.000
    50 H       2.060750    -1.553339     0.148235 H          1 UNL1 0.000
    51 H       4.514834    -1.502397     0.152097 H          1 UNL1 0.000
    52 H       4.409919     2.767385     0.830166 H          1 UNL1 0.000
    53 H       1.972392     2.706196     0.812155 H          1 UNL1 0.000
    54 H       7.013253     2.176391     1.599704 H          1 UNL1 0.000
    55 H       6.447764     2.700331    -0.024411 H          1 UNL1 0.000
    56 H       7.916243     1.750077     0.124496 H          1 UNL1 0.000
@<TRIPOS>BOND
     1      1      2   1
     2      1      3   1
     3      3      4   2
     4      4      5   1
     5      5      6   2
     6      6      7   1
     7      7      8   2
     8      8      3   1
     9      2      9   2
    10      9     10   1
    11     10     11   2
    12     11     12   1
    13     12     13   2
    14     13      2   1
    15     11     14   1
    16     14     15   2
    17     15     16   1
    18     16     17   2
    19     17     12   1
    20     18     19   2
    21     19     20   1
    22     20     21   2
    23     21     22   1
    24     22     23   1
    25     23     18   1
    26     22     24   2
    27     24     25   1
    28     25     26   1
    29     26     23   2
    30      1     18   1
    31      4     27   1
    32      5     28   1
    33      6     29   1
    34      7     30   1
    35      8     31   1
    36      9     32   1
    37     10     33   1
    38     13     34   1
    39     14     35   1
    40     15     36   1
    41     16     37   1
    42     17     38   1
    43     19     39   1
    44     20     40   1
    45     41     42   2
    46     42     43   1
    47     43     44   2
    48     44     45   1
    49     45     46   2
    50     46     41   1
    51     44     47   1
    52     47     48   1
    53     47     49   2
    54     42     50   1
    55     43     51   1
    56     45     52   1
    57     46     53   1
    58     48     54   1
    59     48     55   1
    60     48     56   1
    61     21     41   1
