# Produced with molli package
@<TRIPOS>MOLECULE
F_8_O
50 55 0 0 0
SMALL
USER_CHARGES

@<TRIPOS>ATOM
     1 N      -4.034207     0.542362     0.396893 N          1 UNL1 0.000
     2 C      -4.727928    -0.733218     0.371503 C          1 UNL1 0.000
     3 C      -4.672908     1.839258     0.519370 C          1 UNL1 0.000
     4 C      -5.897023     2.025338     1.183595 C          1 UNL1 0.000
     5 C      -6.506415     3.285541     1.260276 C          1 UNL1 0.000
     6 C      -5.879285     4.403798     0.720860 C          1 UNL1 0.000
     7 C      -4.641152     4.263997     0.108525 C          1 UNL1 0.000
     8 C      -4.051447     2.999509     0.006184 C          1 UNL1 0.000
     9 C      -4.042359    -1.934413     0.645310 C          1 UNL1 0.000
    10 C      -4.694467    -3.172687     0.678845 C          1 UNL1 0.000
    11 C      -6.071345    -3.256749     0.460077 C          1 UNL1 0.000
    12 C      -6.784723    -2.082627     0.147766 C          1 UNL1 0.000
    13 C      -6.095147    -0.852637     0.062170 C          1 UNL1 0.000
    14 C      -6.750283    -4.483095     0.551912 C          1 UNL1 0.000
    15 C      -8.130661    -4.545931     0.362662 C          1 UNL1 0.000
    16 C      -8.842324    -3.388222     0.065218 C          1 UNL1 0.000
    17 C      -8.173723    -2.167024    -0.052861 C          1 UNL1 0.000
    18 C      -2.596788     0.527353     0.341451 C          1 UNL1 0.000
    19 C      -1.845407     0.582030     1.543404 C          1 UNL1 0.000
    20 C      -0.433274     0.571430     1.585496 C          1 UNL1 0.000
    21 C       0.375701     0.536494     0.428585 C          1 UNL1 0.000
    22 C      -0.314118     0.496354    -0.816593 C          1 UNL1 0.000
    23 C      -1.826972     0.476593    -0.860779 C          1 UNL1 0.000
    24 N       0.236034     0.495919    -2.044912 N          1 UNL1 0.000
    25 S      -1.009082     0.423793    -3.133804 S          1 UNL1 0.000
    26 N      -2.312257     0.440161    -2.114659 N          1 UNL1 0.000
    27 H      -6.397710     1.194793     1.672703 H          1 UNL1 0.000
    28 H      -7.470880     3.390620     1.750544 H          1 UNL1 0.000
    29 H      -6.349190     5.381497     0.784338 H          1 UNL1 0.000
    30 H      -4.131690     5.132319    -0.301345 H          1 UNL1 0.000
    31 H      -3.095883     2.941271    -0.506834 H          1 UNL1 0.000
    32 H      -2.976414    -1.940692     0.854946 H          1 UNL1 0.000
    33 H      -4.113433    -4.064936     0.899372 H          1 UNL1 0.000
    34 H      -6.655550     0.021088    -0.257674 H          1 UNL1 0.000
    35 H      -6.207955    -5.396687     0.783821 H          1 UNL1 0.000
    36 H      -8.647867    -5.497693     0.451854 H          1 UNL1 0.000
    37 H      -9.919517    -3.433013    -0.072770 H          1 UNL1 0.000
    38 H      -8.749921    -1.273853    -0.282460 H          1 UNL1 0.000
    39 H      -2.389753     0.616382     2.488716 H          1 UNL1 0.000
    40 H       0.052884     0.589242     2.562423 H          1 UNL1 0.000
    41 C       1.827071     0.552094     0.479534 C          1 UNL1 0.000
    42 N       2.425208    -0.661886     0.544727 N          1 UNL1 0.000
    43 C       3.775730    -0.682729     0.576535 C          1 UNL1 0.000
    44 C       4.565830     0.454714     0.580013 C          1 UNL1 0.000
    45 C       3.935270     1.692102     0.544920 C          1 UNL1 0.000
    46 C       2.545449     1.745695     0.491517 C          1 UNL1 0.000
    47 H       4.221493    -1.673066     0.597490 H          1 UNL1 0.000
    48 H       5.646828     0.377407     0.606864 H          1 UNL1 0.000
    49 H       4.519123     2.607887     0.550470 H          1 UNL1 0.000
    50 H       2.034561     2.702253     0.453567 H          1 UNL1 0.000
@<TRIPOS>BOND
     1      1      2   1
     2      1      3   1
     3      3      4   2
     4      4      5   1
     5      5      6   2
     6      6      7   1
     7      7      8   2
     8      8      3   1
     9      2      9   2
    10      9     10   1
    11     10     11   2
    12     11     12   1
    13     12     13   2
    14     13      2   1
    15     11     14   1
    16     14     15   2
    17     15     16   1
    18     16     17   2
    19     17     12   1
    20     18     19   2
    21     19     20   1
    22     20     21   2
    23     21     22   1
    24     22     23   1
    25     23     18   1
    26     22     24   2
    27     24     25   1
    28     25     26   1
    29     26     23   2
    30      1     18   1
    31      4     27   1
    32      5     28   1
    33      6     29   1
    34      7     30   1
    35      8     31   1
    36      9     32   1
    37     10     33   1
    38     13     34   1
    39     14     35   1
    40     15     36   1
    41     16     37   1
    42     17     38   1
    43     19     39   1
    44     20     40   1
    45     41     42   2
    46     42     43   1
    47     43     44   2
    48     44     45   1
    49     45     46   2
    50     46     41   1
    51     43     47   1
    52     44     48   1
    53     45     49   1
    54     46     50   1
    55     21     41   1
