# Produced with molli package
@<TRIPOS>MOLECULE
F_8_N
48 53 0 0 0
SMALL
USER_CHARGES

@<TRIPOS>ATOM
     1 N      -4.013588     0.479423     0.514899 N          1 UNL1 0.000
     2 C      -4.719347    -0.788409     0.488461 C          1 UNL1 0.000
     3 C      -4.640125     1.778754     0.646564 C          1 UNL1 0.000
     4 C      -5.824453     1.979155     1.374624 C          1 UNL1 0.000
     5 C      -6.417062     3.245587     1.470805 C          1 UNL1 0.000
     6 C      -5.814241     4.351234     0.878414 C          1 UNL1 0.000
     7 C      -4.617745     4.193194     0.191275 C          1 UNL1 0.000
     8 C      -4.043065     2.923764     0.074515 C          1 UNL1 0.000
     9 C      -4.037099    -1.997097     0.737667 C          1 UNL1 0.000
    10 C      -4.691485    -3.234077     0.738732 C          1 UNL1 0.000
    11 C      -6.067613    -3.310097     0.514193 C          1 UNL1 0.000
    12 C      -6.782129    -2.124691     0.246081 C          1 UNL1 0.000
    13 C      -6.091861    -0.892781     0.198364 C          1 UNL1 0.000
    14 C      -6.744693    -4.539985     0.555211 C          1 UNL1 0.000
    15 C      -8.123931    -4.598083     0.358078 C          1 UNL1 0.000
    16 C      -8.837366    -3.430057     0.108546 C          1 UNL1 0.000
    17 C      -8.170993    -2.203602     0.043478 C          1 UNL1 0.000
    18 C      -2.578913     0.455098     0.415564 C          1 UNL1 0.000
    19 C      -1.791011     0.600008     1.588945 C          1 UNL1 0.000
    20 C      -0.378910     0.575041     1.595227 C          1 UNL1 0.000
    21 C       0.378375     0.415662     0.420941 C          1 UNL1 0.000
    22 C      -0.335814     0.281895    -0.802755 C          1 UNL1 0.000
    23 C      -1.848614     0.295394    -0.803155 C          1 UNL1 0.000
    24 N       0.181285     0.143386    -2.037013 N          1 UNL1 0.000
    25 S      -1.097075     0.046078    -3.086448 S          1 UNL1 0.000
    26 N      -2.370323     0.168972    -2.035993 N          1 UNL1 0.000
    27 H      -6.301749     1.154769     1.897017 H          1 UNL1 0.000
    28 H      -7.348994     3.366690     2.017121 H          1 UNL1 0.000
    29 H      -6.271553     5.333936     0.956961 H          1 UNL1 0.000
    30 H      -4.130021     5.051221    -0.264310 H          1 UNL1 0.000
    31 H      -3.121608     2.845338    -0.496008 H          1 UNL1 0.000
    32 H      -2.971588    -2.008579     0.948065 H          1 UNL1 0.000
    33 H      -4.112383    -4.133720     0.933251 H          1 UNL1 0.000
    34 H      -6.654002    -0.006944    -0.083742 H          1 UNL1 0.000
    35 H      -6.201155    -5.461841     0.749329 H          1 UNL1 0.000
    36 H      -8.638997    -5.554111     0.402989 H          1 UNL1 0.000
    37 H      -9.913884    -3.471609    -0.035445 H          1 UNL1 0.000
    38 H      -8.748721    -1.303011    -0.151489 H          1 UNL1 0.000
    39 H      -2.308656     0.722574     2.542200 H          1 UNL1 0.000
    40 H       0.136258     0.681470     2.550586 H          1 UNL1 0.000
    41 C       1.823421     0.413425     0.441341 C          1 UNL1 0.000
    42 C       2.540297    -0.765898     0.457188 C          1 UNL1 0.000
    43 S       4.230849    -0.494583     0.491379 S          1 UNL1 0.000
    44 C       4.014355     1.202271     0.482653 C          1 UNL1 0.000
    45 C       2.682559     1.554335     0.462125 C          1 UNL1 0.000
    46 H       2.161900    -1.779310     0.445667 H          1 UNL1 0.000
    47 H       4.873003     1.859350     0.490946 H          1 UNL1 0.000
    48 H       2.342237     2.582730     0.449928 H          1 UNL1 0.000
@<TRIPOS>BOND
     1      1      2   1
     2      1      3   1
     3      3      4   2
     4      4      5   1
     5      5      6   2
     6      6      7   1
     7      7      8   2
     8      8      3   1
     9      2      9   2
    10      9     10   1
    11     10     11   2
    12     11     12   1
    13     12     13   2
    14     13      2   1
    15     11     14   1
    16     14     15   2
    17     15     16   1
    18     16     17   2
    19     17     12   1
    20     18     19   2
    21     19     20   1
    22     20     21   2
    23     21     22   1
    24     22     23   1
    25     23     18   1
    26     22     24   2
    27     24     25   1
    28     25     26   1
    29     26     23   2
    30      1     18   1
    31      4     27   1
    32      5     28   1
    33      6     29   1
    34      7     30   1
    35      8     31   1
    36      9     32   1
    37     10     33   1
    38     13     34   1
    39     14     35   1
    40     15     36   1
    41     16     37   1
    42     17     38   1
    43     19     39   1
    44     20     40   1
    45     41     42   2
    46     42     43   1
    47     43     44   1
    48     44     45   2
    49     45     41   1
    50     42     46   1
    51     44     47   1
    52     45     48   1
    53     21     41   1
