# Produced with molli package
@<TRIPOS>MOLECULE
F_8_L
55 61 0 0 0
SMALL
USER_CHARGES

@<TRIPOS>ATOM
     1 N      -4.003605     0.546146     0.464706 N          1 UNL1 0.000
     2 C      -4.693725    -0.730108     0.442017 C          1 UNL1 0.000
     3 C      -4.656767     1.833417     0.588757 C          1 UNL1 0.000
     4 C      -5.861159     2.004741     1.292843 C          1 UNL1 0.000
     5 C      -6.492028     3.253072     1.370771 C          1 UNL1 0.000
     6 C      -5.907266     4.372120     0.786799 C          1 UNL1 0.000
     7 C      -4.689736     4.245168     0.129787 C          1 UNL1 0.000
     8 C      -4.076194     2.992076     0.030229 C          1 UNL1 0.000
     9 C      -4.013721    -1.926994     0.741869 C          1 UNL1 0.000
    10 C      -4.669702    -3.163357     0.777657 C          1 UNL1 0.000
    11 C      -6.043548    -3.247234     0.534298 C          1 UNL1 0.000
    12 C      -6.749384    -2.075330     0.198235 C          1 UNL1 0.000
    13 C      -6.057119    -0.848048     0.114303 C          1 UNL1 0.000
    14 C      -6.727929    -4.470801     0.625693 C          1 UNL1 0.000
    15 C      -8.105021    -4.531754     0.411029 C          1 UNL1 0.000
    16 C      -8.808187    -3.375475     0.089096 C          1 UNL1 0.000
    17 C      -8.134548    -2.157237    -0.027367 C          1 UNL1 0.000
    18 C      -2.567364     0.542168     0.399653 C          1 UNL1 0.000
    19 C      -1.807662     0.660202     1.591852 C          1 UNL1 0.000
    20 C      -0.394825     0.646317     1.627706 C          1 UNL1 0.000
    21 C       0.408340     0.532674     0.472579 C          1 UNL1 0.000
    22 C      -0.291366     0.428844    -0.765953 C          1 UNL1 0.000
    23 C      -1.804741     0.426625    -0.802275 C          1 UNL1 0.000
    24 N       0.253930     0.329711    -1.991843 N          1 UNL1 0.000
    25 S      -0.997359     0.252419    -3.073297 S          1 UNL1 0.000
    26 N      -2.296094     0.329935    -2.050585 N          1 UNL1 0.000
    27 H      -6.327456     1.168920     1.807182 H          1 UNL1 0.000
    28 H      -7.439745     3.348291     1.894468 H          1 UNL1 0.000
    29 H      -6.394857     5.341261     0.848959 H          1 UNL1 0.000
    30 H      -4.216009     5.115428    -0.317188 H          1 UNL1 0.000
    31 H      -3.139577     2.937272    -0.517759 H          1 UNL1 0.000
    32 H      -2.952531    -1.928136     0.973555 H          1 UNL1 0.000
    33 H      -4.096070    -4.054639     1.019628 H          1 UNL1 0.000
    34 H      -6.610095     0.026987    -0.215777 H          1 UNL1 0.000
    35 H      -6.193153    -5.383581     0.876830 H          1 UNL1 0.000
    36 H      -8.626662    -5.481188     0.499535 H          1 UNL1 0.000
    37 H      -9.882664    -3.418703    -0.069321 H          1 UNL1 0.000
    38 H      -8.703505    -1.264655    -0.276403 H          1 UNL1 0.000
    39 H      -2.345833     0.750210     2.537091 H          1 UNL1 0.000
    40 H       0.094741     0.728147     2.599802 H          1 UNL1 0.000
    41 C       1.866331     0.528683     0.526401 C          1 UNL1 0.000
    42 C       2.571618    -0.677537     0.641225 C          1 UNL1 0.000
    43 C       3.970317    -0.712393     0.697630 C          1 UNL1 0.000
    44 C       4.649071     0.508277     0.635248 C          1 UNL1 0.000
    45 C       3.988948     1.731047     0.524914 C          1 UNL1 0.000
    46 C       2.580944     1.739670     0.472639 C          1 UNL1 0.000
    47 N       5.999062     0.777921     0.657476 N          1 UNL1 0.000
    48 C       6.213783     2.127911     0.568583 C          1 UNL1 0.000
    49 C       4.986182     2.744277     0.485543 C          1 UNL1 0.000
    50 H       2.027078    -1.619759     0.679119 H          1 UNL1 0.000
    51 H       4.499935    -1.655762     0.778605 H          1 UNL1 0.000
    52 H       2.054391     2.685615     0.379287 H          1 UNL1 0.000
    53 H       6.722215     0.075343     0.724429 H          1 UNL1 0.000
    54 H       7.217262     2.531406     0.568055 H          1 UNL1 0.000
    55 H       4.819438     3.809932     0.400291 H          1 UNL1 0.000
@<TRIPOS>BOND
     1      1      2   1
     2      1      3   1
     3      3      4   2
     4      4      5   1
     5      5      6   2
     6      6      7   1
     7      7      8   2
     8      8      3   1
     9      2      9   2
    10      9     10   1
    11     10     11   2
    12     11     12   1
    13     12     13   2
    14     13      2   1
    15     11     14   1
    16     14     15   2
    17     15     16   1
    18     16     17   2
    19     17     12   1
    20     18     19   2
    21     19     20   1
    22     20     21   2
    23     21     22   1
    24     22     23   1
    25     23     18   1
    26     22     24   2
    27     24     25   1
    28     25     26   1
    29     26     23   2
    30      1     18   1
    31      4     27   1
    32      5     28   1
    33      6     29   1
    34      7     30   1
    35      8     31   1
    36      9     32   1
    37     10     33   1
    38     13     34   1
    39     14     35   1
    40     15     36   1
    41     16     37   1
    42     17     38   1
    43     19     39   1
    44     20     40   1
    45     41     42   2
    46     42     43   1
    47     43     44   2
    48     44     45   1
    49     45     46   2
    50     46     41   1
    51     44     47   1
    52     47     48   1
    53     48     49   2
    54     49     45   1
    55     42     50   1
    56     43     51   1
    57     46     52   1
    58     47     53   1
    59     48     54   1
    60     49     55   1
    61     21     41   1
