# Produced with molli package
@<TRIPOS>MOLECULE
F_9_Q
48 52 0 0 0
SMALL
USER_CHARGES

@<TRIPOS>ATOM
     1 N      -3.227111     0.484727     1.786040 N          1 UNL1 0.000
     2 C      -3.930491    -0.786803     1.814282 C          1 UNL1 0.000
     3 C      -3.866187     1.782850     1.696013 C          1 UNL1 0.000
     4 C      -5.111683     1.974934     1.074060 C          1 UNL1 0.000
     5 C      -5.727387     3.233268     1.039864 C          1 UNL1 0.000
     6 C      -5.088845     4.342144     1.585540 C          1 UNL1 0.000
     7 C      -3.830638     4.195857     2.155744 C          1 UNL1 0.000
     8 C      -3.230119     2.933552     2.209920 C          1 UNL1 0.000
     9 C      -3.269797    -1.983061     1.469890 C          1 UNL1 0.000
    10 C      -3.926960    -3.218607     1.453944 C          1 UNL1 0.000
    11 C      -5.287122    -3.302041     1.763135 C          1 UNL1 0.000
    12 C      -5.975041    -2.132338     2.138954 C          1 UNL1 0.000
    13 C      -5.278578    -0.904218     2.200330 C          1 UNL1 0.000
    14 C      -5.972896    -4.526690     1.697359 C          1 UNL1 0.000
    15 C      -7.337903    -4.590237     1.977609 C          1 UNL1 0.000
    16 C      -8.025633    -3.436414     2.337825 C          1 UNL1 0.000
    17 C      -7.348781    -2.217079     2.428437 C          1 UNL1 0.000
    18 C      -1.786366     0.456258     1.800834 C          1 UNL1 0.000
    19 C      -1.097186     0.271121     3.007625 C          1 UNL1 0.000
    20 C       0.294264     0.211840     3.016674 C          1 UNL1 0.000
    21 C       1.002460     0.293681     1.815599 C          1 UNL1 0.000
    22 C       0.334185     0.454779     0.589634 C          1 UNL1 0.000
    23 C      -1.064294     0.569786     0.600597 C          1 UNL1 0.000
    24 H      -5.621816     1.150039     0.584848 H          1 UNL1 0.000
    25 H      -6.704096     3.344821     0.576142 H          1 UNL1 0.000
    26 H      -5.563093     5.319279     1.554089 H          1 UNL1 0.000
    27 H      -3.310461     5.058865     2.563215 H          1 UNL1 0.000
    28 H      -2.250290     2.865819     2.675549 H          1 UNL1 0.000
    29 H      -2.220258    -1.982089     1.187917 H          1 UNL1 0.000
    30 H      -3.366255    -4.107066     1.175921 H          1 UNL1 0.000
    31 H      -5.815642    -0.031985     2.560772 H          1 UNL1 0.000
    32 H      -5.449873    -5.436923     1.415415 H          1 UNL1 0.000
    33 H      -7.861899    -5.540134     1.908673 H          1 UNL1 0.000
    34 H      -9.091688    -3.481883     2.545760 H          1 UNL1 0.000
    35 H      -7.906966    -1.326988     2.707124 H          1 UNL1 0.000
    36 H      -1.652259     0.187980     3.938712 H          1 UNL1 0.000
    37 H       0.827043     0.093129     3.956486 H          1 UNL1 0.000
    38 H       2.089448     0.234311     1.839365 H          1 UNL1 0.000
    39 H      -1.605479     0.704373    -0.334482 H          1 UNL1 0.000
    40 C       1.074265     0.451476    -0.671243 C          1 UNL1 0.000
    41 N       1.141410     1.624568    -1.348360 N          1 UNL1 0.000
    42 C       1.844728     1.595450    -2.505097 C          1 UNL1 0.000
    43 C       2.452742     0.445848    -2.982268 C          1 UNL1 0.000
    44 N       2.387493    -0.732434    -2.325377 N          1 UNL1 0.000
    45 C       1.686790    -0.700794    -1.164680 C          1 UNL1 0.000
    46 H       1.909695     2.533797    -3.043902 H          1 UNL1 0.000
    47 H       3.011897     0.442699    -3.910918 H          1 UNL1 0.000
    48 H       1.622734    -1.645697    -0.634843 H          1 UNL1 0.000
@<TRIPOS>BOND
     1      1      2   1
     2      1      3   1
     3      3      4   2
     4      4      5   1
     5      5      6   2
     6      6      7   1
     7      7      8   2
     8      8      3   1
     9      2      9   2
    10      9     10   1
    11     10     11   2
    12     11     12   1
    13     12     13   2
    14     13      2   1
    15     11     14   1
    16     14     15   2
    17     15     16   1
    18     16     17   2
    19     17     12   1
    20     18     19   2
    21     19     20   1
    22     20     21   2
    23     21     22   1
    24     22     23   2
    25     23     18   1
    26      1     18   1
    27      4     24   1
    28      5     25   1
    29      6     26   1
    30      7     27   1
    31      8     28   1
    32      9     29   1
    33     10     30   1
    34     13     31   1
    35     14     32   1
    36     15     33   1
    37     16     34   1
    38     17     35   1
    39     19     36   1
    40     20     37   1
    41     21     38   1
    42     23     39   1
    43     40     41   2
    44     41     42   1
    45     42     43   2
    46     43     44   1
    47     44     45   2
    48     45     40   1
    49     42     46   1
    50     43     47   1
    51     45     48   1
    52     22     40   1
