# Produced with molli package
@<TRIPOS>MOLECULE
F_9_K
52 56 0 0 0
SMALL
USER_CHARGES

@<TRIPOS>ATOM
     1 N      -3.298488     0.540106     1.624447 N          1 UNL1 0.000
     2 C      -3.991237    -0.733500     1.671445 C          1 UNL1 0.000
     3 C      -3.952354     1.827789     1.749249 C          1 UNL1 0.000
     4 C      -5.125636     2.009401     2.501245 C          1 UNL1 0.000
     5 C      -5.740496     3.263744     2.601849 C          1 UNL1 0.000
     6 C      -5.175795     4.373850     1.981048 C          1 UNL1 0.000
     7 C      -3.994220     4.232451     1.263188 C          1 UNL1 0.000
     8 C      -3.392354     2.975292     1.149082 C          1 UNL1 0.000
     9 C      -3.317131    -1.913783     2.039748 C          1 UNL1 0.000
    10 C      -3.979931    -3.141741     2.143583 C          1 UNL1 0.000
    11 C      -5.350924    -3.234849     1.890386 C          1 UNL1 0.000
    12 C      -6.050256    -2.080765     1.480182 C          1 UNL1 0.000
    13 C      -5.353653    -0.861322     1.341881 C          1 UNL1 0.000
    14 C      -6.039819    -4.449049     2.042634 C          1 UNL1 0.000
    15 C      -7.412777    -4.521507     1.808554 C          1 UNL1 0.000
    16 C      -8.108387    -3.384848     1.408169 C          1 UNL1 0.000
    17 C      -7.431262    -2.175053     1.237082 C          1 UNL1 0.000
    18 C      -1.858463     0.540931     1.627659 C          1 UNL1 0.000
    19 C      -1.161137     0.683558     2.837003 C          1 UNL1 0.000
    20 C       0.231196     0.683555     2.848742 C          1 UNL1 0.000
    21 C       0.935203     0.578535     1.648395 C          1 UNL1 0.000
    22 C       0.259132     0.462153     0.423051 C          1 UNL1 0.000
    23 C      -1.142701     0.417204     0.426471 C          1 UNL1 0.000
    24 H      -5.570754     1.179838     3.043844 H          1 UNL1 0.000
    25 H      -6.656751     3.372142     3.176526 H          1 UNL1 0.000
    26 H      -5.649119     5.348468     2.065402 H          1 UNL1 0.000
    27 H      -3.536120     5.096458     0.788833 H          1 UNL1 0.000
    28 H      -2.475399     2.905199     0.570315 H          1 UNL1 0.000
    29 H      -2.256886    -1.902646     2.277660 H          1 UNL1 0.000
    30 H      -3.412445    -4.019057     2.445485 H          1 UNL1 0.000
    31 H      -5.901054     0.002588     0.972870 H          1 UNL1 0.000
    32 H      -5.511012    -5.346429     2.356143 H          1 UNL1 0.000
    33 H      -7.937447    -5.463862     1.942560 H          1 UNL1 0.000
    34 H      -9.179626    -3.437510     1.232114 H          1 UNL1 0.000
    35 H      -7.995363    -1.297631     0.928556 H          1 UNL1 0.000
    36 H      -1.712284     0.779938     3.769342 H          1 UNL1 0.000
    37 H       0.767048     0.778550     3.789369 H          1 UNL1 0.000
    38 H       2.023237     0.605349     1.669304 H          1 UNL1 0.000
    39 H      -1.690265     0.323697    -0.509050 H          1 UNL1 0.000
    40 C       1.009804     0.446506    -0.833776 C          1 UNL1 0.000
    41 C       1.480424    -0.756054    -1.382954 C          1 UNL1 0.000
    42 C       2.224926    -0.756803    -2.566961 C          1 UNL1 0.000
    43 C       2.503496     0.457762    -3.205636 C          1 UNL1 0.000
    44 C       2.037761     1.666723    -2.678120 C          1 UNL1 0.000
    45 C       1.291991     1.653628    -1.497141 C          1 UNL1 0.000
    46 N       3.299273     0.465826    -4.435885 N          1 UNL1 0.000
    47 O       3.409137    -0.601436    -5.056439 O          1 UNL1 0.000
    48 O       3.816299     1.538440    -4.778853 O          1 UNL1 0.000
    49 H       1.271900    -1.700576    -0.882747 H          1 UNL1 0.000
    50 H       2.584048    -1.701728    -2.969366 H          1 UNL1 0.000
    51 H       2.245625     2.616394    -3.166474 H          1 UNL1 0.000
    52 H       0.934060     2.595915    -1.083868 H          1 UNL1 0.000
@<TRIPOS>BOND
     1      1      2   1
     2      1      3   1
     3      3      4   2
     4      4      5   1
     5      5      6   2
     6      6      7   1
     7      7      8   2
     8      8      3   1
     9      2      9   2
    10      9     10   1
    11     10     11   2
    12     11     12   1
    13     12     13   2
    14     13      2   1
    15     11     14   1
    16     14     15   2
    17     15     16   1
    18     16     17   2
    19     17     12   1
    20     18     19   2
    21     19     20   1
    22     20     21   2
    23     21     22   1
    24     22     23   2
    25     23     18   1
    26      1     18   1
    27      4     24   1
    28      5     25   1
    29      6     26   1
    30      7     27   1
    31      8     28   1
    32      9     29   1
    33     10     30   1
    34     13     31   1
    35     14     32   1
    36     15     33   1
    37     16     34   1
    38     17     35   1
    39     19     36   1
    40     20     37   1
    41     21     38   1
    42     23     39   1
    43     40     41   2
    44     41     42   1
    45     42     43   2
    46     43     44   1
    47     44     45   2
    48     45     40   1
    49     46     47   2
    50     46     48   1
    51     43     46   1
    52     41     49   1
    53     42     50   1
    54     44     51   1
    55     45     52   1
    56     22     40   1
