# Produced with molli package
@<TRIPOS>MOLECULE
F_9_R
51 55 0 0 0
SMALL
USER_CHARGES

@<TRIPOS>ATOM
     1 N      -3.249743     0.463400     1.740636 N          1 UNL1 0.000
     2 C      -3.971294    -0.793459     1.787018 C          1 UNL1 0.000
     3 C      -3.882540     1.761594     1.631677 C          1 UNL1 0.000
     4 C      -5.102987     1.949789     0.960717 C          1 UNL1 0.000
     5 C      -5.710548     3.209672     0.891397 C          1 UNL1 0.000
     6 C      -5.092139     4.318886     1.460451 C          1 UNL1 0.000
     7 C      -3.862909     4.171408     2.091946 C          1 UNL1 0.000
     8 C      -3.267243     2.908873     2.175227 C          1 UNL1 0.000
     9 C      -3.349439    -1.998058     1.406320 C          1 UNL1 0.000
    10 C      -4.036528    -3.216997     1.412641 C          1 UNL1 0.000
    11 C      -5.382083    -3.274806     1.786771 C          1 UNL1 0.000
    12 C      -6.028753    -2.090995     2.199048 C          1 UNL1 0.000
    13 C      -5.305563    -0.880105     2.225986 C          1 UNL1 0.000
    14 C      -6.098268    -4.482341     1.752777 C          1 UNL1 0.000
    15 C      -7.447636    -4.519048     2.104175 C          1 UNL1 0.000
    16 C      -8.091932    -3.352213     2.503655 C          1 UNL1 0.000
    17 C      -7.386006    -2.148277     2.558939 C          1 UNL1 0.000
    18 C      -1.810938     0.426343     1.745804 C          1 UNL1 0.000
    19 C      -1.113845     0.241739     2.947398 C          1 UNL1 0.000
    20 C       0.278702     0.226731     2.952485 C          1 UNL1 0.000
    21 C       0.981648     0.369412     1.753602 C          1 UNL1 0.000
    22 C       0.307252     0.527664     0.529856 C          1 UNL1 0.000
    23 C      -1.095384     0.567495     0.544711 C          1 UNL1 0.000
    24 H      -5.595154     1.117970     0.463681 H          1 UNL1 0.000
    25 H      -6.665397     3.322008     0.384334 H          1 UNL1 0.000
    26 H      -5.562103     5.297069     1.403758 H          1 UNL1 0.000
    27 H      -3.364246     5.034044     2.526081 H          1 UNL1 0.000
    28 H      -2.313441     2.833955     2.690717 H          1 UNL1 0.000
    29 H      -2.314217    -2.011929     1.073977 H          1 UNL1 0.000
    30 H      -3.509261    -4.115893     1.101317 H          1 UNL1 0.000
    31 H      -5.807226     0.008489     2.600867 H          1 UNL1 0.000
    32 H      -5.609815    -5.402930     1.441098 H          1 UNL1 0.000
    33 H      -7.994462    -5.457303     2.061242 H          1 UNL1 0.000
    34 H      -9.145471    -3.376866     2.769471 H          1 UNL1 0.000
    35 H      -7.909688    -1.246953     2.869700 H          1 UNL1 0.000
    36 H      -1.663374     0.123351     3.877874 H          1 UNL1 0.000
    37 H       0.816913     0.090935     3.886856 H          1 UNL1 0.000
    38 H       2.068941     0.323559     1.775313 H          1 UNL1 0.000
    39 H      -1.643885     0.680361    -0.388941 H          1 UNL1 0.000
    40 C       1.048682     0.605807    -0.732554 C          1 UNL1 0.000
    41 N       0.789147    -0.384425    -1.627013 N          1 UNL1 0.000
    42 C       1.503107    -0.399537    -2.780045 C          1 UNL1 0.000
    43 C       2.466880     0.547351    -3.079650 C          1 UNL1 0.000
    44 C       2.715472     1.577066    -2.172589 C          1 UNL1 0.000
    45 C       1.993025     1.603762    -0.979240 C          1 UNL1 0.000
    46 N       3.216392     0.446228    -4.318761 N          1 UNL1 0.000
    47 O       4.311764     1.021938    -4.371946 O          1 UNL1 0.000
    48 O       2.715856    -0.211255    -5.241449 O          1 UNL1 0.000
    49 H       1.268780    -1.226189    -3.446366 H          1 UNL1 0.000
    50 H       3.456528     2.346378    -2.374744 H          1 UNL1 0.000
    51 H       2.166476     2.391802    -0.252023 H          1 UNL1 0.000
@<TRIPOS>BOND
     1      1      2   1
     2      1      3   1
     3      3      4   2
     4      4      5   1
     5      5      6   2
     6      6      7   1
     7      7      8   2
     8      8      3   1
     9      2      9   2
    10      9     10   1
    11     10     11   2
    12     11     12   1
    13     12     13   2
    14     13      2   1
    15     11     14   1
    16     14     15   2
    17     15     16   1
    18     16     17   2
    19     17     12   1
    20     18     19   2
    21     19     20   1
    22     20     21   2
    23     21     22   1
    24     22     23   2
    25     23     18   1
    26      1     18   1
    27      4     24   1
    28      5     25   1
    29      6     26   1
    30      7     27   1
    31      8     28   1
    32      9     29   1
    33     10     30   1
    34     13     31   1
    35     14     32   1
    36     15     33   1
    37     16     34   1
    38     17     35   1
    39     19     36   1
    40     20     37   1
    41     21     38   1
    42     23     39   1
    43     40     41   2
    44     41     42   1
    45     42     43   2
    46     43     44   1
    47     44     45   2
    48     45     40   1
    49     46     47   2
    50     46     48   1
    51     43     46   1
    52     42     49   1
    53     44     50   1
    54     45     51   1
    55     22     40   1
