# Produced with molli package
@<TRIPOS>MOLECULE
F_9_O
49 53 0 0 0
SMALL
USER_CHARGES

@<TRIPOS>ATOM
     1 N      -3.307587     0.528976     1.655020 N          1 UNL1 0.000
     2 C      -3.998181    -0.747954     1.633420 C          1 UNL1 0.000
     3 C      -3.956678     1.817322     1.811325 C          1 UNL1 0.000
     4 C      -5.150343     1.987178     2.532451 C          1 UNL1 0.000
     5 C      -5.762224     3.242403     2.648033 C          1 UNL1 0.000
     6 C      -5.168937     4.367740     2.084295 C          1 UNL1 0.000
     7 C      -3.961475     4.240547     1.409131 C          1 UNL1 0.000
     8 C      -3.367252     2.981859     1.272820 C          1 UNL1 0.000
     9 C      -3.308065    -1.949394     1.887068 C          1 UNL1 0.000
    10 C      -3.963331    -3.185453     1.938757 C          1 UNL1 0.000
    11 C      -5.346841    -3.264589     1.756471 C          1 UNL1 0.000
    12 C      -6.063483    -2.089852     1.457519 C          1 UNL1 0.000
    13 C      -5.372725    -0.862671     1.353103 C          1 UNL1 0.000
    14 C      -6.029156    -4.487162     1.874014 C          1 UNL1 0.000
    15 C      -7.414803    -4.543842     1.722071 C          1 UNL1 0.000
    16 C      -8.128634    -3.384970     1.435476 C          1 UNL1 0.000
    17 C      -7.457856    -2.167720     1.292678 C          1 UNL1 0.000
    18 C      -1.866523     0.529761     1.687236 C          1 UNL1 0.000
    19 C      -1.195645     0.656802     2.913291 C          1 UNL1 0.000
    20 C       0.195672     0.683846     2.952619 C          1 UNL1 0.000
    21 C       0.924060     0.625375     1.763254 C          1 UNL1 0.000
    22 C       0.276424     0.518931     0.519609 C          1 UNL1 0.000
    23 C      -1.124935     0.436211     0.499239 C          1 UNL1 0.000
    24 H      -5.617582     1.147793     3.039515 H          1 UNL1 0.000
    25 H      -6.699393     3.338764     3.190143 H          1 UNL1 0.000
    26 H      -5.639653     5.342350     2.180879 H          1 UNL1 0.000
    27 H      -3.477517     5.115480     0.983139 H          1 UNL1 0.000
    28 H      -2.430403     2.924609     0.724941 H          1 UNL1 0.000
    29 H      -2.235922    -1.953178     2.068012 H          1 UNL1 0.000
    30 H      -3.379508    -4.078355     2.147106 H          1 UNL1 0.000
    31 H      -5.938202     0.014887     1.053937 H          1 UNL1 0.000
    32 H      -5.485467    -5.401327     2.098998 H          1 UNL1 0.000
    33 H      -7.934134    -5.492222     1.832767 H          1 UNL1 0.000
    34 H      -9.209416    -3.425029     1.326736 H          1 UNL1 0.000
    35 H      -8.035412    -1.272926     1.074238 H          1 UNL1 0.000
    36 H      -1.766752     0.720295     3.836215 H          1 UNL1 0.000
    37 H       0.711632     0.759663     3.905844 H          1 UNL1 0.000
    38 H       2.011116     0.659526     1.807561 H          1 UNL1 0.000
    39 H      -1.647649     0.341859    -0.450727 H          1 UNL1 0.000
    40 C       1.042117     0.544303    -0.729383 C          1 UNL1 0.000
    41 N       0.980801    -0.572334    -1.493246 N          1 UNL1 0.000
    42 C       1.683462    -0.570732    -2.647833 C          1 UNL1 0.000
    43 C       2.439895     0.501246    -3.092423 C          1 UNL1 0.000
    44 C       2.482588     1.644592    -2.305693 C          1 UNL1 0.000
    45 C       1.778264     1.668184    -1.105613 C          1 UNL1 0.000
    46 H       1.619886    -1.487488    -3.226997 H          1 UNL1 0.000
    47 H       2.980155     0.446682    -4.030706 H          1 UNL1 0.000
    48 H       3.055656     2.511246    -2.622051 H          1 UNL1 0.000
    49 H       1.791666     2.555457    -0.480441 H          1 UNL1 0.000
@<TRIPOS>BOND
     1      1      2   1
     2      1      3   1
     3      3      4   2
     4      4      5   1
     5      5      6   2
     6      6      7   1
     7      7      8   2
     8      8      3   1
     9      2      9   2
    10      9     10   1
    11     10     11   2
    12     11     12   1
    13     12     13   2
    14     13      2   1
    15     11     14   1
    16     14     15   2
    17     15     16   1
    18     16     17   2
    19     17     12   1
    20     18     19   2
    21     19     20   1
    22     20     21   2
    23     21     22   1
    24     22     23   2
    25     23     18   1
    26      1     18   1
    27      4     24   1
    28      5     25   1
    29      6     26   1
    30      7     27   1
    31      8     28   1
    32      9     29   1
    33     10     30   1
    34     13     31   1
    35     14     32   1
    36     15     33   1
    37     16     34   1
    38     17     35   1
    39     19     36   1
    40     20     37   1
    41     21     38   1
    42     23     39   1
    43     40     41   2
    44     41     42   1
    45     42     43   2
    46     43     44   1
    47     44     45   2
    48     45     40   1
    49     42     46   1
    50     43     47   1
    51     44     48   1
    52     45     49   1
    53     22     40   1
