# Produced with molli package
@<TRIPOS>MOLECULE
F_9_N
47 51 0 0 0
SMALL
USER_CHARGES

@<TRIPOS>ATOM
     1 N      -3.311861     0.511297     1.783975 N          1 UNL1 0.000
     2 C      -3.987026    -0.775035     1.836399 C          1 UNL1 0.000
     3 C      -3.977327     1.796478     1.676829 C          1 UNL1 0.000
     4 C      -5.216978     1.961775     1.036443 C          1 UNL1 0.000
     5 C      -5.862089     3.205493     0.996989 C          1 UNL1 0.000
     6 C      -5.256242     4.328794     1.550232 C          1 UNL1 0.000
     7 C      -4.000112     4.212136     2.130838 C          1 UNL1 0.000
     8 C      -3.372239     2.963524     2.192715 C          1 UNL1 0.000
     9 C      -3.284505    -1.970263     1.578134 C          1 UNL1 0.000
    10 C      -3.915005    -3.220039     1.583054 C          1 UNL1 0.000
    11 C      -5.286816    -3.323917     1.821901 C          1 UNL1 0.000
    12 C      -6.018129    -2.153749     2.112649 C          1 UNL1 0.000
    13 C      -5.348515    -0.911721     2.162797 C          1 UNL1 0.000
    14 C      -5.946389    -4.562637     1.770590 C          1 UNL1 0.000
    15 C      -7.323401    -4.644006     1.975617 C          1 UNL1 0.000
    16 C      -8.052490    -3.490418     2.247779 C          1 UNL1 0.000
    17 C      -7.403178    -2.256278     2.327191 C          1 UNL1 0.000
    18 C      -1.870631     0.520285     1.789323 C          1 UNL1 0.000
    19 C      -1.166590     0.444277     3.001081 C          1 UNL1 0.000
    20 C       0.227768     0.470330     3.006267 C          1 UNL1 0.000
    21 C       0.928299     0.538836     1.800473 C          1 UNL1 0.000
    22 C       0.236959     0.581528     0.583899 C          1 UNL1 0.000
    23 C      -1.161621     0.593087     0.579570 C          1 UNL1 0.000
    24 H      -5.701208     1.126910     0.537852 H          1 UNL1 0.000
    25 H      -6.836955     3.294221     0.524405 H          1 UNL1 0.000
    26 H      -5.754290     5.293980     1.516723 H          1 UNL1 0.000
    27 H      -3.504166     5.086971     2.543289 H          1 UNL1 0.000
    28 H      -2.396788     2.920548     2.669457 H          1 UNL1 0.000
    29 H      -2.221445    -1.958609     1.352921 H          1 UNL1 0.000
    30 H      -3.320995    -4.107080     1.374309 H          1 UNL1 0.000
    31 H      -5.923467    -0.041670     2.467080 H          1 UNL1 0.000
    32 H      -5.391032    -5.473357     1.556707 H          1 UNL1 0.000
    33 H      -7.825568    -5.606027     1.916691 H          1 UNL1 0.000
    34 H      -9.127688    -3.549280     2.394904 H          1 UNL1 0.000
    35 H      -7.993156    -1.366367     2.536060 H          1 UNL1 0.000
    36 H      -1.713356     0.384003     3.938932 H          1 UNL1 0.000
    37 H       0.768149     0.430626     3.948344 H          1 UNL1 0.000
    38 H       2.016069     0.540645     1.813976 H          1 UNL1 0.000
    39 H      -1.710294     0.638367    -0.358403 H          1 UNL1 0.000
    40 C       0.974689     0.592120    -0.666543 C          1 UNL1 0.000
    41 C       1.010558    -0.521027    -1.483496 C          1 UNL1 0.000
    42 S       1.966914    -0.270524    -2.881234 S          1 UNL1 0.000
    43 C       2.341926     1.328663    -2.403582 C          1 UNL1 0.000
    44 C       1.754873     1.662008    -1.202222 C          1 UNL1 0.000
    45 H       0.529335    -1.477609    -1.328686 H          1 UNL1 0.000
    46 H       2.975715     1.945642    -3.025438 H          1 UNL1 0.000
    47 H       1.873452     2.630936    -0.732803 H          1 UNL1 0.000
@<TRIPOS>BOND
     1      1      2   1
     2      1      3   1
     3      3      4   2
     4      4      5   1
     5      5      6   2
     6      6      7   1
     7      7      8   2
     8      8      3   1
     9      2      9   2
    10      9     10   1
    11     10     11   2
    12     11     12   1
    13     12     13   2
    14     13      2   1
    15     11     14   1
    16     14     15   2
    17     15     16   1
    18     16     17   2
    19     17     12   1
    20     18     19   2
    21     19     20   1
    22     20     21   2
    23     21     22   1
    24     22     23   2
    25     23     18   1
    26      1     18   1
    27      4     24   1
    28      5     25   1
    29      6     26   1
    30      7     27   1
    31      8     28   1
    32      9     29   1
    33     10     30   1
    34     13     31   1
    35     14     32   1
    36     15     33   1
    37     16     34   1
    38     17     35   1
    39     19     36   1
    40     20     37   1
    41     21     38   1
    42     23     39   1
    43     40     41   2
    44     41     42   1
    45     42     43   1
    46     43     44   2
    47     44     40   1
    48     41     45   1
    49     43     46   1
    50     44     47   1
    51     22     40   1
