# Produced with molli package
@<TRIPOS>MOLECULE
F_9_T
53 57 0 0 0
SMALL
USER_CHARGES

@<TRIPOS>ATOM
     1 N      -3.227184     0.561737     1.651698 N          1 UNL1 0.000
     2 C      -3.923187    -0.712748     1.691416 C          1 UNL1 0.000
     3 C      -3.880953     1.850826     1.563510 C          1 UNL1 0.000
     4 C      -5.099073     2.033644     0.886774 C          1 UNL1 0.000
     5 C      -5.734586     3.281349     0.850052 C          1 UNL1 0.000
     6 C      -5.144311     4.386907     1.454479 C          1 UNL1 0.000
     7 C      -3.913833     4.248513     2.085295 C          1 UNL1 0.000
     8 C      -3.291342     2.996966     2.136833 C          1 UNL1 0.000
     9 C      -3.252856    -1.911314     1.373987 C          1 UNL1 0.000
    10 C      -3.904507    -3.149524     1.378708 C          1 UNL1 0.000
    11 C      -5.264681    -3.236574     1.683255 C          1 UNL1 0.000
    12 C      -5.963551    -2.061273     2.029931 C          1 UNL1 0.000
    13 C      -5.274399    -0.829714     2.066176 C          1 UNL1 0.000
    14 C      -5.943747    -4.465024     1.644381 C          1 UNL1 0.000
    15 C      -7.308472    -4.532055     1.923064 C          1 UNL1 0.000
    16 C      -8.005406    -3.374149     2.254670 C          1 UNL1 0.000
    17 C      -7.336410    -2.149435     2.316864 C          1 UNL1 0.000
    18 C      -1.786595     0.548234     1.665431 C          1 UNL1 0.000
    19 C      -1.095157     0.394081     2.875561 C          1 UNL1 0.000
    20 C       0.296332     0.343525     2.884518 C          1 UNL1 0.000
    21 C       1.002068     0.407163     1.681478 C          1 UNL1 0.000
    22 C       0.332539     0.538384     0.453431 C          1 UNL1 0.000
    23 C      -1.066554     0.637746     0.461140 C          1 UNL1 0.000
    24 H      -5.569007     1.207026     0.360611 H          1 UNL1 0.000
    25 H      -6.689189     3.387235     0.341195 H          1 UNL1 0.000
    26 H      -5.635745     5.355646     1.424451 H          1 UNL1 0.000
    27 H      -3.434476     5.109365     2.544141 H          1 UNL1 0.000
    28 H      -2.337017     2.930518     2.652468 H          1 UNL1 0.000
    29 H      -2.201098    -1.908803     1.099943 H          1 UNL1 0.000
    30 H      -3.336255    -4.040698     1.121930 H          1 UNL1 0.000
    31 H      -5.820371     0.048521     2.400442 H          1 UNL1 0.000
    32 H      -5.413386    -5.378861     1.385355 H          1 UNL1 0.000
    33 H      -7.826030    -5.486542     1.876352 H          1 UNL1 0.000
    34 H      -9.071079    -3.422302     2.462392 H          1 UNL1 0.000
    35 H      -7.901258    -1.256021     2.574223 H          1 UNL1 0.000
    36 H      -1.648701     0.320631     3.808136 H          1 UNL1 0.000
    37 H       0.831617     0.239296     3.824273 H          1 UNL1 0.000
    38 H       2.088799     0.344415     1.700724 H          1 UNL1 0.000
    39 H      -1.611497     0.730772    -0.476190 H          1 UNL1 0.000
    40 C       1.085236     0.514311    -0.805116 C          1 UNL1 0.000
    41 C       1.673857    -0.678796    -1.253066 C          1 UNL1 0.000
    42 C       2.420397    -0.715276    -2.433795 C          1 UNL1 0.000
    43 C       2.590125     0.442779    -3.197544 C          1 UNL1 0.000
    44 C       2.005272     1.636500    -2.758414 C          1 UNL1 0.000
    45 C       1.254423     1.669971    -1.577953 C          1 UNL1 0.000
    46 C       3.429764     0.424059    -4.440344 C          1 UNL1 0.000
    47 H       1.552480    -1.594036    -0.676831 H          1 UNL1 0.000
    48 H       2.869194    -1.654824    -2.747766 H          1 UNL1 0.000
    49 H       2.135647     2.552406    -3.330529 H          1 UNL1 0.000
    50 H       0.814547     2.611033    -1.254670 H          1 UNL1 0.000
    51 H       4.404373     0.880126    -4.239672 H          1 UNL1 0.000
    52 H       2.934741     0.974145    -5.247070 H          1 UNL1 0.000
    53 H       3.594687    -0.599166    -4.794360 H          1 UNL1 0.000
@<TRIPOS>BOND
     1      1      2   1
     2      1      3   1
     3      3      4   2
     4      4      5   1
     5      5      6   2
     6      6      7   1
     7      7      8   2
     8      8      3   1
     9      2      9   2
    10      9     10   1
    11     10     11   2
    12     11     12   1
    13     12     13   2
    14     13      2   1
    15     11     14   1
    16     14     15   2
    17     15     16   1
    18     16     17   2
    19     17     12   1
    20     18     19   2
    21     19     20   1
    22     20     21   2
    23     21     22   1
    24     22     23   2
    25     23     18   1
    26      1     18   1
    27      4     24   1
    28      5     25   1
    29      6     26   1
    30      7     27   1
    31      8     28   1
    32      9     29   1
    33     10     30   1
    34     13     31   1
    35     14     32   1
    36     15     33   1
    37     16     34   1
    38     17     35   1
    39     19     36   1
    40     20     37   1
    41     21     38   1
    42     23     39   1
    43     40     41   2
    44     41     42   1
    45     42     43   2
    46     43     44   1
    47     44     45   2
    48     45     40   1
    49     43     46   1
    50     41     47   1
    51     42     48   1
    52     44     49   1
    53     45     50   1
    54     46     51   1
    55     46     52   1
    56     46     53   1
    57     22     40   1
