# Produced with molli package
@<TRIPOS>MOLECULE
F_9_M
51 55 0 0 0
SMALL
USER_CHARGES

@<TRIPOS>ATOM
     1 N      -3.227968     0.537651     1.603205 N          1 UNL1 0.000
     2 C      -3.912784    -0.746777     1.575409 C          1 UNL1 0.000
     3 C      -3.866363     1.841422     1.711807 C          1 UNL1 0.000
     4 C      -5.143977     2.037555     2.260442 C          1 UNL1 0.000
     5 C      -5.754029     3.300871     2.277663 C          1 UNL1 0.000
     6 C      -5.070469     4.419188     1.814199 C          1 UNL1 0.000
     7 C      -3.772316     4.277142     1.345945 C          1 UNL1 0.000
     8 C      -3.185366     3.008068     1.291024 C          1 UNL1 0.000
     9 C      -3.207090    -1.945058     1.816248 C          1 UNL1 0.000
    10 C      -3.842334    -3.193100     1.854250 C          1 UNL1 0.000
    11 C      -5.225538    -3.291818     1.691075 C          1 UNL1 0.000
    12 C      -5.961496    -2.121576     1.419329 C          1 UNL1 0.000
    13 C      -5.284791    -0.886647     1.301667 C          1 UNL1 0.000
    14 C      -5.891321    -4.524056     1.802481 C          1 UNL1 0.000
    15 C      -7.279647    -4.594780     1.688107 C          1 UNL1 0.000
    16 C      -8.014054    -3.438350     1.445429 C          1 UNL1 0.000
    17 C      -7.359003    -2.213489     1.296720 C          1 UNL1 0.000
    18 C      -1.784313     0.528186     1.599743 C          1 UNL1 0.000
    19 C      -1.081191     0.641530     2.808875 C          1 UNL1 0.000
    20 C       0.311037     0.664703     2.809620 C          1 UNL1 0.000
    21 C       1.007594     0.599755     1.601617 C          1 UNL1 0.000
    22 C       0.326117     0.501133     0.377191 C          1 UNL1 0.000
    23 C      -1.075200     0.445158     0.389156 C          1 UNL1 0.000
    24 H      -5.694199     1.218529     2.712038 H          1 UNL1 0.000
    25 H      -6.763675     3.407845     2.666239 H          1 UNL1 0.000
    26 H      -5.539972     5.398790     1.834703 H          1 UNL1 0.000
    27 H      -3.210623     5.146792     1.015079 H          1 UNL1 0.000
    28 H      -2.172325     2.953676     0.901729 H          1 UNL1 0.000
    29 H      -2.135098    -1.938735     1.995738 H          1 UNL1 0.000
    30 H      -3.243331    -4.080576     2.045212 H          1 UNL1 0.000
    31 H      -5.868597    -0.027391     0.987593 H          1 UNL1 0.000
    32 H      -5.332007    -5.436642     1.996229 H          1 UNL1 0.000
    33 H      -7.786124    -5.550281     1.797013 H          1 UNL1 0.000
    34 H      -9.097651    -3.487215     1.375670 H          1 UNL1 0.000
    35 H      -7.953455    -1.320987     1.114095 H          1 UNL1 0.000
    36 H      -1.626900     0.707859     3.746911 H          1 UNL1 0.000
    37 H       0.853467     0.748089     3.747627 H          1 UNL1 0.000
    38 H       2.095269     0.645141     1.615634 H          1 UNL1 0.000
    39 H      -1.629018     0.370838    -0.544459 H          1 UNL1 0.000
    40 C       1.074006     0.501394    -0.882274 C          1 UNL1 0.000
    41 C       1.196552     1.679431    -1.636227 C          1 UNL1 0.000
    42 C       1.953666     1.702235    -2.811584 C          1 UNL1 0.000
    43 C       2.596300     0.542142    -3.252297 C          1 UNL1 0.000
    44 C       2.470111    -0.640403    -2.517103 C          1 UNL1 0.000
    45 C       1.714723    -0.658698    -1.340002 C          1 UNL1 0.000
    46 C       3.389610     0.567738    -4.445698 C          1 UNL1 0.000
    47 N       4.037550     0.590510    -5.409146 N          1 UNL1 0.000
    48 H       0.712507     2.594486    -1.298183 H          1 UNL1 0.000
    49 H       2.043288     2.631716    -3.370906 H          1 UNL1 0.000
    50 H       2.962780    -1.552570    -2.848471 H          1 UNL1 0.000
    51 H       1.631756    -1.584919    -0.773966 H          1 UNL1 0.000
@<TRIPOS>BOND
     1      1      2   1
     2      1      3   1
     3      3      4   2
     4      4      5   1
     5      5      6   2
     6      6      7   1
     7      7      8   2
     8      8      3   1
     9      2      9   2
    10      9     10   1
    11     10     11   2
    12     11     12   1
    13     12     13   2
    14     13      2   1
    15     11     14   1
    16     14     15   2
    17     15     16   1
    18     16     17   2
    19     17     12   1
    20     18     19   2
    21     19     20   1
    22     20     21   2
    23     21     22   1
    24     22     23   2
    25     23     18   1
    26      1     18   1
    27      4     24   1
    28      5     25   1
    29      6     26   1
    30      7     27   1
    31      8     28   1
    32      9     29   1
    33     10     30   1
    34     13     31   1
    35     14     32   1
    36     15     33   1
    37     16     34   1
    38     17     35   1
    39     19     36   1
    40     20     37   1
    41     21     38   1
    42     23     39   1
    43     40     41   2
    44     41     42   1
    45     42     43   2
    46     43     44   1
    47     44     45   2
    48     45     40   1
    49     46     47   3
    50     43     46   1
    51     41     48   1
    52     42     49   1
    53     44     50   1
    54     45     51   1
    55     22     40   1
