# Produced with molli package
@<TRIPOS>MOLECULE
F_9_L
54 59 0 0 0
SMALL
USER_CHARGES

@<TRIPOS>ATOM
     1 N      -3.230622     0.539827     1.730632 N          1 UNL1 0.000
     2 C      -3.931520    -0.731797     1.772780 C          1 UNL1 0.000
     3 C      -3.875215     1.832890     1.611418 C          1 UNL1 0.000
     4 C      -5.086001     2.015965     0.922135 C          1 UNL1 0.000
     5 C      -5.710185     3.268697     0.860326 C          1 UNL1 0.000
     6 C      -5.112698     4.380033     1.446576 C          1 UNL1 0.000
     7 C      -3.886173     4.242255     2.084433 C          1 UNL1 0.000
     8 C      -3.277668     2.985481     2.164722 C          1 UNL1 0.000
     9 C      -3.257231    -1.939228     1.504407 C          1 UNL1 0.000
    10 C      -3.918187    -3.173624     1.496443 C          1 UNL1 0.000
    11 C      -5.293783    -3.244849     1.735844 C          1 UNL1 0.000
    12 C      -5.995213    -2.062241     2.038100 C          1 UNL1 0.000
    13 C      -5.297398    -0.835898     2.096654 C          1 UNL1 0.000
    14 C      -5.983180    -4.467783     1.672385 C          1 UNL1 0.000
    15 C      -7.361993    -4.516520     1.880486 C          1 UNL1 0.000
    16 C      -8.061483    -3.349155     2.167190 C          1 UNL1 0.000
    17 C      -7.382754    -2.131265     2.256518 C          1 UNL1 0.000
    18 C      -1.789834     0.526393     1.736482 C          1 UNL1 0.000
    19 C      -1.087434     0.409439     2.943805 C          1 UNL1 0.000
    20 C       0.305791     0.412533     2.944731 C          1 UNL1 0.000
    21 C       1.004160     0.498468     1.737785 C          1 UNL1 0.000
    22 C       0.323582     0.584641     0.512578 C          1 UNL1 0.000
    23 C      -1.078729     0.618170     0.527683 C          1 UNL1 0.000
    24 H      -5.559563     1.187007     0.403459 H          1 UNL1 0.000
    25 H      -6.661131     3.374107     0.344608 H          1 UNL1 0.000
    26 H      -5.594261     5.352757     1.395289 H          1 UNL1 0.000
    27 H      -3.398329     5.107432     2.525776 H          1 UNL1 0.000
    28 H      -2.325422     2.921548     2.684466 H          1 UNL1 0.000
    29 H      -2.193830    -1.948672     1.278771 H          1 UNL1 0.000
    30 H      -3.346938    -4.072184     1.278435 H          1 UNL1 0.000
    31 H      -5.850006     0.047658     2.401602 H          1 UNL1 0.000
    32 H      -5.451438    -5.388813     1.447489 H          1 UNL1 0.000
    33 H      -7.887635    -5.465553     1.812797 H          1 UNL1 0.000
    34 H      -9.137463    -3.382900     2.318278 H          1 UNL1 0.000
    35 H      -7.949267    -1.229933     2.476700 H          1 UNL1 0.000
    36 H      -1.632871     0.334625     3.881001 H          1 UNL1 0.000
    37 H       0.849240     0.340092     3.882938 H          1 UNL1 0.000
    38 H       2.092536     0.478781     1.752572 H          1 UNL1 0.000
    39 H      -1.631035     0.694962    -0.406921 H          1 UNL1 0.000
    40 C       1.065150     0.601216    -0.753774 C          1 UNL1 0.000
    41 C       1.050855    -0.521360    -1.595839 C          1 UNL1 0.000
    42 C       1.768940    -0.556529    -2.797359 C          1 UNL1 0.000
    43 C       2.507024     0.579996    -3.139174 C          1 UNL1 0.000
    44 C       2.545312     1.720791    -2.338608 C          1 UNL1 0.000
    45 C       1.816550     1.728968    -1.131737 C          1 UNL1 0.000
    46 N       3.298687     0.828679    -4.237857 N          1 UNL1 0.000
    47 C       3.831039     2.088444    -4.162049 C          1 UNL1 0.000
    48 C       3.380491     2.665658    -2.996701 C          1 UNL1 0.000
    49 H       0.477027    -1.401324    -1.308175 H          1 UNL1 0.000
    50 H       1.750957    -1.437440    -3.430341 H          1 UNL1 0.000
    51 H       1.836293     2.611503    -0.498027 H          1 UNL1 0.000
    52 H       3.458758     0.171684    -4.988801 H          1 UNL1 0.000
    53 H       4.481256     2.463781    -4.940629 H          1 UNL1 0.000
    54 H       3.624437     3.661252    -2.650466 H          1 UNL1 0.000
@<TRIPOS>BOND
     1      1      2   1
     2      1      3   1
     3      3      4   2
     4      4      5   1
     5      5      6   2
     6      6      7   1
     7      7      8   2
     8      8      3   1
     9      2      9   2
    10      9     10   1
    11     10     11   2
    12     11     12   1
    13     12     13   2
    14     13      2   1
    15     11     14   1
    16     14     15   2
    17     15     16   1
    18     16     17   2
    19     17     12   1
    20     18     19   2
    21     19     20   1
    22     20     21   2
    23     21     22   1
    24     22     23   2
    25     23     18   1
    26      1     18   1
    27      4     24   1
    28      5     25   1
    29      6     26   1
    30      7     27   1
    31      8     28   1
    32      9     29   1
    33     10     30   1
    34     13     31   1
    35     14     32   1
    36     15     33   1
    37     16     34   1
    38     17     35   1
    39     19     36   1
    40     20     37   1
    41     21     38   1
    42     23     39   1
    43     40     41   2
    44     41     42   1
    45     42     43   2
    46     43     44   1
    47     44     45   2
    48     45     40   1
    49     43     46   1
    50     46     47   1
    51     47     48   2
    52     48     44   1
    53     41     49   1
    54     42     50   1
    55     45     51   1
    56     46     52   1
    57     47     53   1
    58     48     54   1
    59     22     40   1
