# Produced with molli package
@<TRIPOS>MOLECULE
F_9_P
54 58 0 0 0
SMALL
USER_CHARGES

@<TRIPOS>ATOM
     1 N      -3.236348     0.544692     1.716563 N          1 UNL1 0.000
     2 C      -3.925353    -0.736326     1.747205 C          1 UNL1 0.000
     3 C      -3.886487     1.840253     1.669272 C          1 UNL1 0.000
     4 C      -5.142226     2.040980     1.071883 C          1 UNL1 0.000
     5 C      -5.773617     3.292194     1.094037 C          1 UNL1 0.000
     6 C      -5.138635     4.389250     1.666898 C          1 UNL1 0.000
     7 C      -3.867215     4.239277     2.204994 C          1 UNL1 0.000
     8 C      -3.252520     2.982602     2.205368 C          1 UNL1 0.000
     9 C      -3.240260    -1.929397     1.437437 C          1 UNL1 0.000
    10 C      -3.877201    -3.175996     1.432045 C          1 UNL1 0.000
    11 C      -5.242266    -3.276753     1.710132 C          1 UNL1 0.000
    12 C      -5.957241    -2.110414     2.045694 C          1 UNL1 0.000
    13 C      -5.279456    -0.871539     2.105005 C          1 UNL1 0.000
    14 C      -5.907890    -4.512739     1.653159 C          1 UNL1 0.000
    15 C      -7.278909    -4.592108     1.896963 C          1 UNL1 0.000
    16 C      -7.993877    -3.441428     2.212359 C          1 UNL1 0.000
    17 C      -7.337074    -2.210994     2.297751 C          1 UNL1 0.000
    18 C      -1.794394     0.531199     1.728288 C          1 UNL1 0.000
    19 C      -1.102167     0.375555     2.938102 C          1 UNL1 0.000
    20 C       0.289470     0.332836     2.946948 C          1 UNL1 0.000
    21 C       0.995015     0.404749     1.744072 C          1 UNL1 0.000
    22 C       0.324500     0.534901     0.516323 C          1 UNL1 0.000
    23 C      -1.075231     0.627662     0.524064 C          1 UNL1 0.000
    24 H      -5.650869     1.228629     0.560591 H          1 UNL1 0.000
    25 H      -6.761144     3.407289     0.654596 H          1 UNL1 0.000
    26 H      -5.626358     5.360129     1.681798 H          1 UNL1 0.000
    27 H      -3.349112     5.093755     2.632531 H          1 UNL1 0.000
    28 H      -2.263977     2.912627     2.651279 H          1 UNL1 0.000
    29 H      -2.184349    -1.918827     1.179376 H          1 UNL1 0.000
    30 H      -3.295036    -4.060383     1.185526 H          1 UNL1 0.000
    31 H      -5.840172    -0.006482     2.445367 H          1 UNL1 0.000
    32 H      -5.363291    -5.420707     1.405559 H          1 UNL1 0.000
    33 H      -7.786661    -5.551098     1.833934 H          1 UNL1 0.000
    34 H      -9.064852    -3.498647     2.389274 H          1 UNL1 0.000
    35 H      -7.916364    -1.323684     2.541315 H          1 UNL1 0.000
    36 H      -1.655953     0.295315     3.870077 H          1 UNL1 0.000
    37 H       0.824570     0.226079     3.886579 H          1 UNL1 0.000
    38 H       2.081769     0.343556     1.763719 H          1 UNL1 0.000
    39 H      -1.621313     0.718588    -0.412882 H          1 UNL1 0.000
    40 C       1.073590     0.495927    -0.744155 C          1 UNL1 0.000
    41 C       1.251110     1.642988    -1.532754 C          1 UNL1 0.000
    42 C       1.984588     1.584109    -2.723814 C          1 UNL1 0.000
    43 C       2.545537     0.374811    -3.130389 C          1 UNL1 0.000
    44 C       2.349917    -0.780199    -2.381441 C          1 UNL1 0.000
    45 C       1.628924    -0.716323    -1.188767 C          1 UNL1 0.000
    46 O       3.247254     0.256828    -4.298106 O          1 UNL1 0.000
    47 C       4.478527     0.975259    -4.234579 C          1 UNL1 0.000
    48 H       0.818365     2.591179    -1.220422 H          1 UNL1 0.000
    49 H       2.100227     2.476711    -3.331027 H          1 UNL1 0.000
    50 H       2.763897    -1.725424    -2.719827 H          1 UNL1 0.000
    51 H       1.490758    -1.624883    -0.606089 H          1 UNL1 0.000
    52 H       5.153041     0.546272    -4.982121 H          1 UNL1 0.000
    53 H       4.962870     0.881921    -3.255147 H          1 UNL1 0.000
    54 H       4.318448     2.028727    -4.483380 H          1 UNL1 0.000
@<TRIPOS>BOND
     1      1      2   1
     2      1      3   1
     3      3      4   2
     4      4      5   1
     5      5      6   2
     6      6      7   1
     7      7      8   2
     8      8      3   1
     9      2      9   2
    10      9     10   1
    11     10     11   2
    12     11     12   1
    13     12     13   2
    14     13      2   1
    15     11     14   1
    16     14     15   2
    17     15     16   1
    18     16     17   2
    19     17     12   1
    20     18     19   2
    21     19     20   1
    22     20     21   2
    23     21     22   1
    24     22     23   2
    25     23     18   1
    26      1     18   1
    27      4     24   1
    28      5     25   1
    29      6     26   1
    30      7     27   1
    31      8     28   1
    32      9     29   1
    33     10     30   1
    34     13     31   1
    35     14     32   1
    36     15     33   1
    37     16     34   1
    38     17     35   1
    39     19     36   1
    40     20     37   1
    41     21     38   1
    42     23     39   1
    43     40     41   2
    44     41     42   1
    45     42     43   2
    46     43     44   1
    47     44     45   2
    48     45     40   1
    49     46     47   1
    50     43     46   1
    51     41     48   1
    52     42     49   1
    53     44     50   1
    54     45     51   1
    55     47     52   1
    56     47     53   1
    57     47     54   1
    58     22     40   1
