# Produced with molli package
@<TRIPOS>MOLECULE
F_9_S
55 59 0 0 0
SMALL
USER_CHARGES

@<TRIPOS>ATOM
     1 N      -3.177884     0.518984     1.654447 N          1 UNL1 0.000
     2 C      -3.864942    -0.763049     1.692733 C          1 UNL1 0.000
     3 C      -3.837883     1.809491     1.605381 C          1 UNL1 0.000
     4 C      -5.083450     2.001925     0.983178 C          1 UNL1 0.000
     5 C      -5.736058     3.241440     1.014814 C          1 UNL1 0.000
     6 C      -5.130460     4.336970     1.620814 C          1 UNL1 0.000
     7 C      -3.866395     4.197461     2.179930 C          1 UNL1 0.000
     8 C      -3.230552     2.950983     2.170804 C          1 UNL1 0.000
     9 C      -3.175138    -1.960316     1.411515 C          1 UNL1 0.000
    10 C      -3.817769    -3.204014     1.396436 C          1 UNL1 0.000
    11 C      -5.191037    -3.297803     1.632881 C          1 UNL1 0.000
    12 C      -5.909052    -2.126696     1.948366 C          1 UNL1 0.000
    13 C      -5.226166    -0.893261     2.024050 C          1 UNL1 0.000
    14 C      -5.864916    -4.527452     1.552375 C          1 UNL1 0.000
    15 C      -7.243842    -4.596416     1.750252 C          1 UNL1 0.000
    16 C      -7.959796    -3.440940     2.047277 C          1 UNL1 0.000
    17 C      -7.295833    -2.217114     2.158542 C          1 UNL1 0.000
    18 C      -1.735879     0.512544     1.658099 C          1 UNL1 0.000
    19 C      -1.036567     0.370979     2.865461 C          1 UNL1 0.000
    20 C       0.355170     0.332056     2.867512 C          1 UNL1 0.000
    21 C       1.054786     0.397709     1.660927 C          1 UNL1 0.000
    22 C       0.379005     0.518320     0.434960 C          1 UNL1 0.000
    23 C      -1.022110     0.600945     0.449074 C          1 UNL1 0.000
    24 H      -5.568747     1.189451     0.449431 H          1 UNL1 0.000
    25 H      -6.717215     3.348061     0.559214 H          1 UNL1 0.000
    26 H      -5.635333     5.298923     1.645619 H          1 UNL1 0.000
    27 H      -3.371872     5.052727     2.633190 H          1 UNL1 0.000
    28 H      -2.250662     2.887120     2.635940 H          1 UNL1 0.000
    29 H      -2.112741    -1.954747     1.182793 H          1 UNL1 0.000
    30 H      -3.233167    -4.092877     1.171014 H          1 UNL1 0.000
    31 H      -5.791988    -0.025210     2.349368 H          1 UNL1 0.000
    32 H      -5.320121    -5.439403     1.318688 H          1 UNL1 0.000
    33 H      -7.757751    -5.550309     1.665494 H          1 UNL1 0.000
    34 H      -9.036409    -3.489653     2.188126 H          1 UNL1 0.000
    35 H      -7.875565    -1.325204     2.386015 H          1 UNL1 0.000
    36 H      -1.584793     0.300503     3.801567 H          1 UNL1 0.000
    37 H       0.895562     0.239982     3.805751 H          1 UNL1 0.000
    38 H       2.142372     0.350960     1.678263 H          1 UNL1 0.000
    39 H      -1.573816     0.687943    -0.484912 H          1 UNL1 0.000
    40 C       1.131371     0.516415    -0.825066 C          1 UNL1 0.000
    41 C       1.267169     1.679115    -1.593339 C          1 UNL1 0.000
    42 C       2.020491     1.671533    -2.773491 C          1 UNL1 0.000
    43 C       2.647381     0.497966    -3.214067 C          1 UNL1 0.000
    44 C       2.512966    -0.669090    -2.456882 C          1 UNL1 0.000
    45 C       1.759662    -0.656320    -1.276067 C          1 UNL1 0.000
    46 C       3.449821     0.550987    -4.474202 C          1 UNL1 0.000
    47 C       4.026972    -0.721513    -5.040860 C          1 UNL1 0.000
    48 O       3.654122     1.631614    -5.021580 O          1 UNL1 0.000
    49 H       0.800113     2.607203    -1.268798 H          1 UNL1 0.000
    50 H       2.120483     2.593313    -3.344543 H          1 UNL1 0.000
    51 H       2.988230    -1.600231    -2.749874 H          1 UNL1 0.000
    52 H       1.664844    -1.575852    -0.700011 H          1 UNL1 0.000
    53 H       4.231450    -0.573136    -6.106166 H          1 UNL1 0.000
    54 H       3.320762    -1.551375    -4.966409 H          1 UNL1 0.000
    55 H       4.962061    -0.962688    -4.529275 H          1 UNL1 0.000
@<TRIPOS>BOND
     1      1      2   1
     2      1      3   1
     3      3      4   2
     4      4      5   1
     5      5      6   2
     6      6      7   1
     7      7      8   2
     8      8      3   1
     9      2      9   2
    10      9     10   1
    11     10     11   2
    12     11     12   1
    13     12     13   2
    14     13      2   1
    15     11     14   1
    16     14     15   2
    17     15     16   1
    18     16     17   2
    19     17     12   1
    20     18     19   2
    21     19     20   1
    22     20     21   2
    23     21     22   1
    24     22     23   2
    25     23     18   1
    26      1     18   1
    27      4     24   1
    28      5     25   1
    29      6     26   1
    30      7     27   1
    31      8     28   1
    32      9     29   1
    33     10     30   1
    34     13     31   1
    35     14     32   1
    36     15     33   1
    37     16     34   1
    38     17     35   1
    39     19     36   1
    40     20     37   1
    41     21     38   1
    42     23     39   1
    43     40     41   2
    44     41     42   1
    45     42     43   2
    46     43     44   1
    47     44     45   2
    48     45     40   1
    49     43     46   1
    50     46     47   1
    51     46     48   2
    52     41     49   1
    53     42     50   1
    54     44     51   1
    55     45     52   1
    56     47     53   1
    57     47     54   1
    58     47     55   1
    59     22     40   1
