# Produced with molli package
@<TRIPOS>MOLECULE
G_10_P
46 50 0 0 0
SMALL
USER_CHARGES

@<TRIPOS>ATOM
     1 C      -5.948317     3.595572     1.831020 C          1 UNL1 0.000
     2 C      -4.613637     3.986502     1.848673 C          1 UNL1 0.000
     3 C      -3.587899     3.037760     1.830188 C          1 UNL1 0.000
     4 C      -3.943168     1.676686     1.790761 C          1 UNL1 0.000
     5 C      -5.275258     1.261067     1.766900 C          1 UNL1 0.000
     6 C      -6.291757     2.240044     1.792143 C          1 UNL1 0.000
     7 N      -3.160081     0.534672     1.747589 N          1 UNL1 0.000
     8 C      -3.954926    -0.598845     1.700275 C          1 UNL1 0.000
     9 C      -3.614818    -1.963524     1.664243 C          1 UNL1 0.000
    10 C      -4.651134    -2.900910     1.646884 C          1 UNL1 0.000
    11 C      -5.981590    -2.495292     1.662338 C          1 UNL1 0.000
    12 C      -6.310000    -1.136101     1.697007 C          1 UNL1 0.000
    13 C      -5.282859    -0.168427     1.720886 C          1 UNL1 0.000
    14 C      -1.752009     0.527765     1.769188 C          1 UNL1 0.000
    15 C      -1.092301     0.664586     2.991148 C          1 UNL1 0.000
    16 C       0.293610     0.659766     2.991749 C          1 UNL1 0.000
    17 C       1.017781     0.543798     1.807849 C          1 UNL1 0.000
    18 C       0.352890     0.422823     0.575662 C          1 UNL1 0.000
    19 C      -1.048882     0.401832     0.565891 C          1 UNL1 0.000
    20 F       0.951438     0.774860     4.154334 F          1 UNL1 0.000
    21 H      -6.732944     4.348124     1.845097 H          1 UNL1 0.000
    22 H      -4.362916     5.044638     1.874787 H          1 UNL1 0.000
    23 H      -2.548076     3.350943     1.838152 H          1 UNL1 0.000
    24 H      -7.337018     1.945324     1.776407 H          1 UNL1 0.000
    25 H      -2.578428    -2.288267     1.658939 H          1 UNL1 0.000
    26 H      -4.412258    -3.961836     1.624404 H          1 UNL1 0.000
    27 H      -6.774436    -3.239213     1.650495 H          1 UNL1 0.000
    28 H      -7.352007    -0.829770     1.712287 H          1 UNL1 0.000
    29 H      -1.633960     0.760193     3.926598 H          1 UNL1 0.000
    30 H       2.103468     0.556562     1.851644 H          1 UNL1 0.000
    31 H      -1.585691     0.310486    -0.378086 H          1 UNL1 0.000
    32 C       1.116228     0.346448    -0.670223 C          1 UNL1 0.000
    33 C       1.434723     1.513118    -1.382483 C          1 UNL1 0.000
    34 C       2.196247     1.453282    -2.553861 C          1 UNL1 0.000
    35 C       2.654087     0.222846    -3.021683 C          1 UNL1 0.000
    36 C       2.309433    -0.946841    -2.346323 C          1 UNL1 0.000
    37 C       1.554958    -0.886185    -1.171790 C          1 UNL1 0.000
    38 O       3.401253     0.065255    -4.156651 O          1 UNL1 0.000
    39 C       4.439767     1.031324    -4.299608 C          1 UNL1 0.000
    40 H       1.089116     2.481204    -1.024649 H          1 UNL1 0.000
    41 H       2.404978     2.373161    -3.090278 H          1 UNL1 0.000
    42 H       2.645035    -1.908260    -2.726000 H          1 UNL1 0.000
    43 H       1.315223    -1.808403    -0.647113 H          1 UNL1 0.000
    44 H       5.122682     0.673634    -5.076211 H          1 UNL1 0.000
    45 H       5.014928     1.141268    -3.373052 H          1 UNL1 0.000
    46 H       4.039637     1.995780    -4.626715 H          1 UNL1 0.000
@<TRIPOS>BOND
     1      1      2   2
     2      2      3   1
     3      3      4   2
     4      4      5   1
     5      5      6   2
     6      6      1   1
     7      4      7   1
     8      7      8   1
     9      8      9   2
    10      9     10   1
    11     10     11   2
    12     11     12   1
    13     12     13   2
    14     13      8   1
    15     13      5   1
    16     14     15   2
    17     15     16   1
    18     16     17   2
    19     17     18   1
    20     18     19   2
    21     19     14   1
    22     16     20   1
    23      7     14   1
    24      1     21   1
    25      2     22   1
    26      3     23   1
    27      6     24   1
    28      9     25   1
    29     10     26   1
    30     11     27   1
    31     12     28   1
    32     15     29   1
    33     17     30   1
    34     19     31   1
    35     32     33   2
    36     33     34   1
    37     34     35   2
    38     35     36   1
    39     36     37   2
    40     37     32   1
    41     38     39   1
    42     35     38   1
    43     33     40   1
    44     34     41   1
    45     36     42   1
    46     37     43   1
    47     39     44   1
    48     39     45   1
    49     39     46   1
    50     18     32   1
