# Produced with molli package
@<TRIPOS>MOLECULE
G_10_K
44 48 0 0 0
SMALL
USER_CHARGES

@<TRIPOS>ATOM
     1 C      -6.055172     3.581542     1.842594 C          1 UNL1 0.000
     2 C      -4.725662     3.989590     1.815511 C          1 UNL1 0.000
     3 C      -3.688762     3.054095     1.767297 C          1 UNL1 0.000
     4 C      -4.027224     1.688594     1.747108 C          1 UNL1 0.000
     5 C      -5.354133     1.255727     1.771699 C          1 UNL1 0.000
     6 C      -6.381971     2.221642     1.821657 C          1 UNL1 0.000
     7 N      -3.231452     0.556064     1.696530 N          1 UNL1 0.000
     8 C      -4.012001    -0.588140     1.696291 C          1 UNL1 0.000
     9 C      -3.655752    -1.949085     1.674824 C          1 UNL1 0.000
    10 C      -4.680131    -2.899315     1.705176 C          1 UNL1 0.000
    11 C      -6.014743    -2.510060     1.751945 C          1 UNL1 0.000
    12 C      -6.359406    -1.154644     1.770865 C          1 UNL1 0.000
    13 C      -5.344471    -0.174157     1.746629 C          1 UNL1 0.000
    14 C      -1.822428     0.566465     1.698920 C          1 UNL1 0.000
    15 C      -1.151578     0.654315     2.917685 C          1 UNL1 0.000
    16 C       0.234686     0.660141     2.904797 C          1 UNL1 0.000
    17 C       0.946272     0.591963     1.708582 C          1 UNL1 0.000
    18 C       0.271271     0.516829     0.478721 C          1 UNL1 0.000
    19 C      -1.132169     0.496960     0.482541 C          1 UNL1 0.000
    20 F       0.903753     0.737400     4.062326 F          1 UNL1 0.000
    21 H      -6.848633     4.323949     1.881270 H          1 UNL1 0.000
    22 H      -4.488373     5.051026     1.832431 H          1 UNL1 0.000
    23 H      -2.653282     3.380799     1.745153 H          1 UNL1 0.000
    24 H      -7.423337     1.913455     1.844899 H          1 UNL1 0.000
    25 H      -2.616066    -2.261421     1.644442 H          1 UNL1 0.000
    26 H      -4.428857    -3.957641     1.695883 H          1 UNL1 0.000
    27 H      -6.798075    -3.263714     1.778090 H          1 UNL1 0.000
    28 H      -7.404440    -0.861083     1.812372 H          1 UNL1 0.000
    29 H      -1.683683     0.709803     3.862289 H          1 UNL1 0.000
    30 H       2.032544     0.611318     1.746131 H          1 UNL1 0.000
    31 H      -1.681047     0.435254    -0.456128 H          1 UNL1 0.000
    32 C       1.026320     0.480062    -0.777124 C          1 UNL1 0.000
    33 C       1.097789     1.617875    -1.599712 C          1 UNL1 0.000
    34 C       1.846387     1.604462    -2.780195 C          1 UNL1 0.000
    35 C       2.531271     0.439545    -3.141764 C          1 UNL1 0.000
    36 C       2.468488    -0.707416    -2.343823 C          1 UNL1 0.000
    37 C       1.715506    -0.681243    -1.166296 C          1 UNL1 0.000
    38 N       3.330743     0.425097    -4.366808 N          1 UNL1 0.000
    39 O       4.273805    -0.378839    -4.424413 O          1 UNL1 0.000
    40 O       3.017708     1.216327    -5.265388 O          1 UNL1 0.000
    41 H       0.578893     2.531549    -1.312301 H          1 UNL1 0.000
    42 H       1.895675     2.501894    -3.393276 H          1 UNL1 0.000
    43 H       2.994936    -1.618061    -2.622529 H          1 UNL1 0.000
    44 H       1.668950    -1.575922    -0.546858 H          1 UNL1 0.000
@<TRIPOS>BOND
     1      1      2   2
     2      2      3   1
     3      3      4   2
     4      4      5   1
     5      5      6   2
     6      6      1   1
     7      4      7   1
     8      7      8   1
     9      8      9   2
    10      9     10   1
    11     10     11   2
    12     11     12   1
    13     12     13   2
    14     13      8   1
    15     13      5   1
    16     14     15   2
    17     15     16   1
    18     16     17   2
    19     17     18   1
    20     18     19   2
    21     19     14   1
    22     16     20   1
    23      7     14   1
    24      1     21   1
    25      2     22   1
    26      3     23   1
    27      6     24   1
    28      9     25   1
    29     10     26   1
    30     11     27   1
    31     12     28   1
    32     15     29   1
    33     17     30   1
    34     19     31   1
    35     32     33   2
    36     33     34   1
    37     34     35   2
    38     35     36   1
    39     36     37   2
    40     37     32   1
    41     38     39   2
    42     38     40   1
    43     35     38   1
    44     33     41   1
    45     34     42   1
    46     36     43   1
    47     37     44   1
    48     18     32   1
