# Produced with molli package
@<TRIPOS>MOLECULE
G_10_L
46 51 0 0 0
SMALL
USER_CHARGES

@<TRIPOS>ATOM
     1 C      -5.943869     3.539571     1.875630 C          1 UNL1 0.000
     2 C      -4.605074     3.917359     1.871709 C          1 UNL1 0.000
     3 C      -3.588489     2.958651     1.845630 C          1 UNL1 0.000
     4 C      -3.957147     1.601103     1.827960 C          1 UNL1 0.000
     5 C      -5.294010     1.198290     1.838290 C          1 UNL1 0.000
     6 C      -6.300715     2.187304     1.857728 C          1 UNL1 0.000
     7 N      -3.186785     0.450294     1.811947 N          1 UNL1 0.000
     8 C      -3.993508    -0.675795     1.825716 C          1 UNL1 0.000
     9 C      -3.667189    -2.044429     1.825300 C          1 UNL1 0.000
    10 C      -4.712624    -2.971526     1.837168 C          1 UNL1 0.000
    11 C      -6.038891    -2.552320     1.846652 C          1 UNL1 0.000
    12 C      -6.353615    -1.189332     1.844932 C          1 UNL1 0.000
    13 C      -5.316781    -0.231689     1.834499 C          1 UNL1 0.000
    14 C      -1.778150     0.425079     1.815224 C          1 UNL1 0.000
    15 C      -1.106454     0.325286     3.032365 C          1 UNL1 0.000
    16 C       0.279425     0.276776     3.014975 C          1 UNL1 0.000
    17 C       0.989068     0.314751     1.816162 C          1 UNL1 0.000
    18 C       0.312920     0.411799     0.588702 C          1 UNL1 0.000
    19 C      -1.089243     0.474135     0.597310 C          1 UNL1 0.000
    20 F       0.948990     0.187674     4.171600 F          1 UNL1 0.000
    21 H      -6.721025     4.299650     1.896452 H          1 UNL1 0.000
    22 H      -4.344178     4.973142     1.891370 H          1 UNL1 0.000
    23 H      -2.545399     3.261148     1.846069 H          1 UNL1 0.000
    24 H      -7.348838     1.902259     1.865383 H          1 UNL1 0.000
    25 H      -2.634007    -2.379394     1.814902 H          1 UNL1 0.000
    26 H      -4.484077    -4.034978     1.838315 H          1 UNL1 0.000
    27 H      -6.839019    -3.288389     1.855893 H          1 UNL1 0.000
    28 H      -7.392488    -0.872395     1.853490 H          1 UNL1 0.000
    29 H      -1.636929     0.287034     3.978506 H          1 UNL1 0.000
    30 H       2.074801     0.270765     1.847747 H          1 UNL1 0.000
    31 H      -1.637036     0.538874    -0.341829 H          1 UNL1 0.000
    32 C       1.062125     0.434727    -0.671835 C          1 UNL1 0.000
    33 C       1.193173     1.622915    -1.404148 C          1 UNL1 0.000
    34 C       1.920692     1.677570    -2.599870 C          1 UNL1 0.000
    35 C       2.514996     0.494288    -3.049171 C          1 UNL1 0.000
    36 C       2.405303    -0.711244    -2.358231 C          1 UNL1 0.000
    37 C       1.671523    -0.738809    -1.155479 C          1 UNL1 0.000
    38 N       3.278547     0.250897    -4.169028 N          1 UNL1 0.000
    39 C       3.649189    -1.067293    -4.211677 C          1 UNL1 0.000
    40 C       3.121501    -1.688654    -3.103018 C          1 UNL1 0.000
    41 H       0.729885     2.537076    -1.035843 H          1 UNL1 0.000
    42 H       2.017831     2.608137    -3.149227 H          1 UNL1 0.000
    43 H       1.577940    -1.672681    -0.607381 H          1 UNL1 0.000
    44 H       3.525928     0.948648    -4.856706 H          1 UNL1 0.000
    45 H       4.254170    -1.447638    -5.023753 H          1 UNL1 0.000
    46 H       3.237686    -2.734573    -2.851022 H          1 UNL1 0.000
@<TRIPOS>BOND
     1      1      2   2
     2      2      3   1
     3      3      4   2
     4      4      5   1
     5      5      6   2
     6      6      1   1
     7      4      7   1
     8      7      8   1
     9      8      9   2
    10      9     10   1
    11     10     11   2
    12     11     12   1
    13     12     13   2
    14     13      8   1
    15     13      5   1
    16     14     15   2
    17     15     16   1
    18     16     17   2
    19     17     18   1
    20     18     19   2
    21     19     14   1
    22     16     20   1
    23      7     14   1
    24      1     21   1
    25      2     22   1
    26      3     23   1
    27      6     24   1
    28      9     25   1
    29     10     26   1
    30     11     27   1
    31     12     28   1
    32     15     29   1
    33     17     30   1
    34     19     31   1
    35     32     33   2
    36     33     34   1
    37     34     35   2
    38     35     36   1
    39     36     37   2
    40     37     32   1
    41     35     38   1
    42     38     39   1
    43     39     40   2
    44     40     36   1
    45     33     41   1
    46     34     42   1
    47     37     43   1
    48     38     44   1
    49     39     45   1
    50     40     46   1
    51     18     32   1
