# Produced with molli package
@<TRIPOS>MOLECULE
G_10_O
41 45 0 0 0
SMALL
USER_CHARGES

@<TRIPOS>ATOM
     1 C      -5.918324     3.538984     1.695976 C          1 UNL1 0.000
     2 C      -4.582434     3.926910     1.683068 C          1 UNL1 0.000
     3 C      -3.558056     2.976125     1.691293 C          1 UNL1 0.000
     4 C      -3.915960     1.616007     1.715986 C          1 UNL1 0.000
     5 C      -5.249996     1.203019     1.731267 C          1 UNL1 0.000
     6 C      -6.264539     2.184063     1.717490 C          1 UNL1 0.000
     7 N      -3.137130     0.472055     1.751645 N          1 UNL1 0.000
     8 C      -3.935871    -0.660262     1.778634 C          1 UNL1 0.000
     9 C      -3.598791    -2.026387     1.801802 C          1 UNL1 0.000
    10 C      -4.636238    -2.962066     1.809050 C          1 UNL1 0.000
    11 C      -5.965662    -2.553417     1.795904 C          1 UNL1 0.000
    12 C      -6.291211    -1.192976     1.773107 C          1 UNL1 0.000
    13 C      -5.262266    -0.226833     1.760071 C          1 UNL1 0.000
    14 C      -1.728416     0.451707     1.780836 C          1 UNL1 0.000
    15 C      -1.078760     0.285095     3.001923 C          1 UNL1 0.000
    16 C       0.306017     0.209132     3.003736 C          1 UNL1 0.000
    17 C       1.034715     0.264245     1.816609 C          1 UNL1 0.000
    18 C       0.381827     0.415176     0.581083 C          1 UNL1 0.000
    19 C      -1.018488     0.532779     0.577264 C          1 UNL1 0.000
    20 F       0.955962     0.064708     4.165458 F          1 UNL1 0.000
    21 H      -6.701225     4.293309     1.690564 H          1 UNL1 0.000
    22 H      -4.329227     4.984653     1.668019 H          1 UNL1 0.000
    23 H      -2.517062     3.286760     1.683789 H          1 UNL1 0.000
    24 H      -7.310347     1.891018     1.728787 H          1 UNL1 0.000
    25 H      -2.562997    -2.352984     1.806213 H          1 UNL1 0.000
    26 H      -4.399033    -4.023463     1.822721 H          1 UNL1 0.000
    27 H      -6.759899    -3.295818     1.800892 H          1 UNL1 0.000
    28 H      -7.332565    -0.884487     1.760506 H          1 UNL1 0.000
    29 H      -1.624914     0.221510     3.937860 H          1 UNL1 0.000
    30 H       2.118344     0.196383     1.867876 H          1 UNL1 0.000
    31 H      -1.546358     0.652957    -0.368183 H          1 UNL1 0.000
    32 C       1.135342     0.423717    -0.677309 C          1 UNL1 0.000
    33 N       0.973295     1.520770    -1.455384 N          1 UNL1 0.000
    34 C       1.656455     1.561211    -2.621098 C          1 UNL1 0.000
    35 C       2.488048     0.546937    -3.065098 C          1 UNL1 0.000
    36 C       2.633012    -0.578737    -2.265199 C          1 UNL1 0.000
    37 C       1.952559    -0.642688    -1.052149 C          1 UNL1 0.000
    38 H       1.511947     2.462854    -3.209452 H          1 UNL1 0.000
    39 H       3.007531     0.631547    -4.013010 H          1 UNL1 0.000
    40 H       3.267272    -1.401705    -2.582096 H          1 UNL1 0.000
    41 H       2.047091    -1.520133    -0.420420 H          1 UNL1 0.000
@<TRIPOS>BOND
     1      1      2   2
     2      2      3   1
     3      3      4   2
     4      4      5   1
     5      5      6   2
     6      6      1   1
     7      4      7   1
     8      7      8   1
     9      8      9   2
    10      9     10   1
    11     10     11   2
    12     11     12   1
    13     12     13   2
    14     13      8   1
    15     13      5   1
    16     14     15   2
    17     15     16   1
    18     16     17   2
    19     17     18   1
    20     18     19   2
    21     19     14   1
    22     16     20   1
    23      7     14   1
    24      1     21   1
    25      2     22   1
    26      3     23   1
    27      6     24   1
    28      9     25   1
    29     10     26   1
    30     11     27   1
    31     12     28   1
    32     15     29   1
    33     17     30   1
    34     19     31   1
    35     32     33   2
    36     33     34   1
    37     34     35   2
    38     35     36   1
    39     36     37   2
    40     37     32   1
    41     34     38   1
    42     35     39   1
    43     36     40   1
    44     37     41   1
    45     18     32   1
