# Produced with molli package
@<TRIPOS>MOLECULE
G_10_T
45 49 0 0 0
SMALL
USER_CHARGES

@<TRIPOS>ATOM
     1 C      -5.960176     3.627964     1.667240 C          1 UNL1 0.000
     2 C      -4.620375     4.002045     1.659841 C          1 UNL1 0.000
     3 C      -3.606243     3.040455     1.672374 C          1 UNL1 0.000
     4 C      -3.978402     1.683928     1.695052 C          1 UNL1 0.000
     5 C      -5.316560     1.285023     1.707251 C          1 UNL1 0.000
     6 C      -6.320595     2.276733     1.688686 C          1 UNL1 0.000
     7 N      -3.211401     0.531501     1.735453 N          1 UNL1 0.000
     8 C      -4.021944    -0.591969     1.763018 C          1 UNL1 0.000
     9 C      -3.699509    -1.961521     1.787761 C          1 UNL1 0.000
    10 C      -4.747247    -2.885872     1.793303 C          1 UNL1 0.000
    11 C      -6.072214    -2.463105     1.777142 C          1 UNL1 0.000
    12 C      -6.383132    -1.099376     1.752024 C          1 UNL1 0.000
    13 C      -5.343688    -0.144528     1.739697 C          1 UNL1 0.000
    14 C      -1.803001     0.500681     1.760997 C          1 UNL1 0.000
    15 C      -1.151358     0.318516     2.979720 C          1 UNL1 0.000
    16 C       0.233612     0.252727     2.979564 C          1 UNL1 0.000
    17 C       0.961464     0.338738     1.794255 C          1 UNL1 0.000
    18 C       0.305702     0.506898     0.562909 C          1 UNL1 0.000
    19 C      -1.094617     0.605248     0.558070 C          1 UNL1 0.000
    20 F       0.884717     0.092303     4.139304 F          1 UNL1 0.000
    21 H      -6.735366     4.390300     1.659731 H          1 UNL1 0.000
    22 H      -4.356755     5.057280     1.648184 H          1 UNL1 0.000
    23 H      -2.562455     3.340528     1.674333 H          1 UNL1 0.000
    24 H      -7.369530     1.994719     1.697815 H          1 UNL1 0.000
    25 H      -2.667299    -2.299528     1.793753 H          1 UNL1 0.000
    26 H      -4.521466    -3.949816     1.807746 H          1 UNL1 0.000
    27 H      -6.874354    -3.197029     1.781074 H          1 UNL1 0.000
    28 H      -7.421128    -0.779898     1.736601 H          1 UNL1 0.000
    29 H      -1.696546     0.235500     3.914546 H          1 UNL1 0.000
    30 H       2.045376     0.270855     1.839596 H          1 UNL1 0.000
    31 H      -1.628906     0.721025    -0.384161 H          1 UNL1 0.000
    32 C       1.067276     0.541218    -0.690233 C          1 UNL1 0.000
    33 C       1.132796     1.705045    -1.468613 C          1 UNL1 0.000
    34 C       1.862199     1.729351    -2.662142 C          1 UNL1 0.000
    35 C       2.534443     0.586245    -3.106568 C          1 UNL1 0.000
    36 C       2.472573    -0.579087    -2.336062 C          1 UNL1 0.000
    37 C       1.748071    -0.599833    -1.141325 C          1 UNL1 0.000
    38 C       3.325060     0.598408    -4.381069 C          1 UNL1 0.000
    39 H       0.621609     2.608992    -1.144039 H          1 UNL1 0.000
    40 H       1.900153     2.649963    -3.240122 H          1 UNL1 0.000
    41 H       2.987052    -1.480403    -2.662051 H          1 UNL1 0.000
    42 H       1.709572    -1.522285    -0.565096 H          1 UNL1 0.000
    43 H       2.972952    -0.191899    -5.052060 H          1 UNL1 0.000
    44 H       4.386914     0.441253    -4.166176 H          1 UNL1 0.000
    45 H       3.223603     1.552769    -4.907933 H          1 UNL1 0.000
@<TRIPOS>BOND
     1      1      2   2
     2      2      3   1
     3      3      4   2
     4      4      5   1
     5      5      6   2
     6      6      1   1
     7      4      7   1
     8      7      8   1
     9      8      9   2
    10      9     10   1
    11     10     11   2
    12     11     12   1
    13     12     13   2
    14     13      8   1
    15     13      5   1
    16     14     15   2
    17     15     16   1
    18     16     17   2
    19     17     18   1
    20     18     19   2
    21     19     14   1
    22     16     20   1
    23      7     14   1
    24      1     21   1
    25      2     22   1
    26      3     23   1
    27      6     24   1
    28      9     25   1
    29     10     26   1
    30     11     27   1
    31     12     28   1
    32     15     29   1
    33     17     30   1
    34     19     31   1
    35     32     33   2
    36     33     34   1
    37     34     35   2
    38     35     36   1
    39     36     37   2
    40     37     32   1
    41     35     38   1
    42     33     39   1
    43     34     40   1
    44     36     41   1
    45     37     42   1
    46     38     43   1
    47     38     44   1
    48     38     45   1
    49     18     32   1
