# Produced with molli package
@<TRIPOS>MOLECULE
G_10_R
43 47 0 0 0
SMALL
USER_CHARGES

@<TRIPOS>ATOM
     1 C      -6.019694     3.625117     1.802337 C          1 UNL1 0.000
     2 C      -4.688887     4.026266     1.745463 C          1 UNL1 0.000
     3 C      -3.656312     3.085472     1.701701 C          1 UNL1 0.000
     4 C      -4.000787     1.721785     1.718473 C          1 UNL1 0.000
     5 C      -5.329319     1.295513     1.774848 C          1 UNL1 0.000
     6 C      -6.352499     2.266710     1.816291 C          1 UNL1 0.000
     7 N      -3.210887     0.585095     1.696260 N          1 UNL1 0.000
     8 C      -3.996758    -0.555358     1.738422 C          1 UNL1 0.000
     9 C      -3.645923    -1.918113     1.743269 C          1 UNL1 0.000
    10 C      -4.673449    -2.863540     1.796000 C          1 UNL1 0.000
    11 C      -6.006056    -2.467690     1.842028 C          1 UNL1 0.000
    12 C      -6.345180    -1.110512     1.836851 C          1 UNL1 0.000
    13 C      -5.326747    -0.134661     1.784635 C          1 UNL1 0.000
    14 C      -1.801999     0.581447     1.697264 C          1 UNL1 0.000
    15 C      -1.130405     0.544449     2.918082 C          1 UNL1 0.000
    16 C       0.254616     0.497086     2.903343 C          1 UNL1 0.000
    17 C       0.964085     0.470826     1.704304 C          1 UNL1 0.000
    18 C       0.289873     0.503261     0.470584 C          1 UNL1 0.000
    19 C      -1.113066     0.572187     0.478327 C          1 UNL1 0.000
    20 F       0.925687     0.466501     4.061887 F          1 UNL1 0.000
    21 H      -6.809184     4.371850     1.837291 H          1 UNL1 0.000
    22 H      -4.446527     5.086643     1.735501 H          1 UNL1 0.000
    23 H      -2.619538     3.406587     1.657151 H          1 UNL1 0.000
    24 H      -7.394525     1.963640     1.862965 H          1 UNL1 0.000
    25 H      -2.607841    -2.234938     1.708653 H          1 UNL1 0.000
    26 H      -4.426356    -3.922806     1.802322 H          1 UNL1 0.000
    27 H      -6.792322    -3.217496     1.884161 H          1 UNL1 0.000
    28 H      -7.388835    -0.811926     1.875861 H          1 UNL1 0.000
    29 H      -1.661515     0.551720     3.864813 H          1 UNL1 0.000
    30 H       2.049869     0.439849     1.744964 H          1 UNL1 0.000
    31 H      -1.659627     0.605788    -0.463510 H          1 UNL1 0.000
    32 C       1.037044     0.462377    -0.789397 C          1 UNL1 0.000
    33 N       0.903809     1.549438    -1.591227 N          1 UNL1 0.000
    34 C       1.620199     1.574184    -2.744174 C          1 UNL1 0.000
    35 C       2.459078     0.543338    -3.133659 C          1 UNL1 0.000
    36 C       2.575873    -0.582223    -2.318894 C          1 UNL1 0.000
    37 C       1.853070    -0.619768    -1.126679 C          1 UNL1 0.000
    38 N       3.212013     0.650575    -4.371459 N          1 UNL1 0.000
    39 O       2.833184     1.485021    -5.204540 O          1 UNL1 0.000
    40 O       4.187144    -0.099727    -4.513967 O          1 UNL1 0.000
    41 H       1.492121     2.477528    -3.335866 H          1 UNL1 0.000
    42 H       3.214115    -1.419281    -2.591484 H          1 UNL1 0.000
    43 H       1.924960    -1.484427    -0.472663 H          1 UNL1 0.000
@<TRIPOS>BOND
     1      1      2   2
     2      2      3   1
     3      3      4   2
     4      4      5   1
     5      5      6   2
     6      6      1   1
     7      4      7   1
     8      7      8   1
     9      8      9   2
    10      9     10   1
    11     10     11   2
    12     11     12   1
    13     12     13   2
    14     13      8   1
    15     13      5   1
    16     14     15   2
    17     15     16   1
    18     16     17   2
    19     17     18   1
    20     18     19   2
    21     19     14   1
    22     16     20   1
    23      7     14   1
    24      1     21   1
    25      2     22   1
    26      3     23   1
    27      6     24   1
    28      9     25   1
    29     10     26   1
    30     11     27   1
    31     12     28   1
    32     15     29   1
    33     17     30   1
    34     19     31   1
    35     32     33   2
    36     33     34   1
    37     34     35   2
    38     35     36   1
    39     36     37   2
    40     37     32   1
    41     38     39   2
    42     38     40   1
    43     35     38   1
    44     34     41   1
    45     36     42   1
    46     37     43   1
    47     18     32   1
