# Produced with molli package
@<TRIPOS>MOLECULE
G_10_N
39 43 0 0 0
SMALL
USER_CHARGES

@<TRIPOS>ATOM
     1 C      -6.117137     3.541243     1.957995 C          1 UNL1 0.000
     2 C      -4.794454     3.967216     2.007144 C          1 UNL1 0.000
     3 C      -3.743386     3.048270     1.955437 C          1 UNL1 0.000
     4 C      -4.058300     1.680169     1.848566 C          1 UNL1 0.000
     5 C      -5.378178     1.231921     1.781886 C          1 UNL1 0.000
     6 C      -6.421611     2.180351     1.848817 C          1 UNL1 0.000
     7 N      -3.241558     0.563866     1.742969 N          1 UNL1 0.000
     8 C      -4.006354    -0.584006     1.605096 C          1 UNL1 0.000
     9 C      -3.633435    -1.936480     1.493759 C          1 UNL1 0.000
    10 C      -4.645954    -2.897383     1.420956 C          1 UNL1 0.000
    11 C      -5.986187    -2.527358     1.454347 C          1 UNL1 0.000
    12 C      -6.348320    -1.181240     1.564124 C          1 UNL1 0.000
    13 C      -5.346017    -0.191168     1.649684 C          1 UNL1 0.000
    14 C      -1.830995     0.600004     1.777374 C          1 UNL1 0.000
    15 C      -1.188885     0.937669     2.969994 C          1 UNL1 0.000
    16 C       0.196504     1.018719     2.976763 C          1 UNL1 0.000
    17 C       0.937565     0.814500     1.816205 C          1 UNL1 0.000
    18 C       0.284903     0.498080     0.618001 C          1 UNL1 0.000
    19 C      -1.109251     0.362469     0.601897 C          1 UNL1 0.000
    20 F       0.831975     1.316338     4.117686 F          1 UNL1 0.000
    21 H      -6.922336     4.270740     1.997532 H          1 UNL1 0.000
    22 H      -4.572821     5.029599     2.080913 H          1 UNL1 0.000
    23 H      -2.713533     3.392437     1.979996 H          1 UNL1 0.000
    24 H      -7.458150     1.858886     1.803185 H          1 UNL1 0.000
    25 H      -2.590017    -2.237316     1.483625 H          1 UNL1 0.000
    26 H      -4.380765    -3.949610     1.345077 H          1 UNL1 0.000
    27 H      -6.760263    -3.289053     1.401331 H          1 UNL1 0.000
    28 H      -7.397759    -0.902456     1.595798 H          1 UNL1 0.000
    29 H      -1.742641     1.118967     3.886274 H          1 UNL1 0.000
    30 H       2.018650     0.911630     1.858031 H          1 UNL1 0.000
    31 H      -1.630428     0.143520    -0.328621 H          1 UNL1 0.000
    32 C       1.051563     0.390828    -0.612446 C          1 UNL1 0.000
    33 C       1.064134    -0.761889    -1.371646 C          1 UNL1 0.000
    34 S       2.040668    -0.608273    -2.770999 S          1 UNL1 0.000
    35 C       2.451627     1.004044    -2.376755 C          1 UNL1 0.000
    36 C       1.864194     1.412560    -1.199903 C          1 UNL1 0.000
    37 H       0.555054    -1.696369    -1.178321 H          1 UNL1 0.000
    38 H       3.101620     1.575702    -3.025221 H          1 UNL1 0.000
    39 H       1.998677     2.405318    -0.786535 H          1 UNL1 0.000
@<TRIPOS>BOND
     1      1      2   2
     2      2      3   1
     3      3      4   2
     4      4      5   1
     5      5      6   2
     6      6      1   1
     7      4      7   1
     8      7      8   1
     9      8      9   2
    10      9     10   1
    11     10     11   2
    12     11     12   1
    13     12     13   2
    14     13      8   1
    15     13      5   1
    16     14     15   2
    17     15     16   1
    18     16     17   2
    19     17     18   1
    20     18     19   2
    21     19     14   1
    22     16     20   1
    23      7     14   1
    24      1     21   1
    25      2     22   1
    26      3     23   1
    27      6     24   1
    28      9     25   1
    29     10     26   1
    30     11     27   1
    31     12     28   1
    32     15     29   1
    33     17     30   1
    34     19     31   1
    35     32     33   2
    36     33     34   1
    37     34     35   1
    38     35     36   2
    39     36     32   1
    40     33     37   1
    41     35     38   1
    42     36     39   1
    43     18     32   1
