# Produced with molli package
@<TRIPOS>MOLECULE
G_10_S
47 51 0 0 0
SMALL
USER_CHARGES

@<TRIPOS>ATOM
     1 C      -6.062129     3.564970     1.890848 C          1 UNL1 0.000
     2 C      -4.733614     3.977371     1.887320 C          1 UNL1 0.000
     3 C      -3.692440     3.045480     1.856352 C          1 UNL1 0.000
     4 C      -4.025743     1.678951     1.828251 C          1 UNL1 0.000
     5 C      -5.351888     1.241766     1.829275 C          1 UNL1 0.000
     6 C      -6.383789     2.204094     1.862683 C          1 UNL1 0.000
     7 N      -3.226446     0.548744     1.790025 N          1 UNL1 0.000
     8 C      -4.003794    -0.597564     1.771799 C          1 UNL1 0.000
     9 C      -3.641895    -1.956992     1.747025 C          1 UNL1 0.000
    10 C      -4.662714    -2.910993     1.748772 C          1 UNL1 0.000
    11 C      -5.999280    -2.526500     1.772500 C          1 UNL1 0.000
    12 C      -6.349359    -1.172324     1.796197 C          1 UNL1 0.000
    13 C      -5.337843    -0.188051     1.798572 C          1 UNL1 0.000
    14 C      -1.817725     0.556927     1.803815 C          1 UNL1 0.000
    15 C      -1.154402     0.593643     3.029183 C          1 UNL1 0.000
    16 C       0.232064     0.565284     3.025571 C          1 UNL1 0.000
    17 C       0.950900     0.507323     1.832823 C          1 UNL1 0.000
    18 C       0.282711     0.477669     0.597737 C          1 UNL1 0.000
    19 C      -1.120193     0.499268     0.591237 C          1 UNL1 0.000
    20 F       0.893858     0.589638     4.189733 F          1 UNL1 0.000
    21 H      -6.858706     4.304637     1.915611 H          1 UNL1 0.000
    22 H      -4.500438     5.039677     1.908565 H          1 UNL1 0.000
    23 H      -2.657835     3.375786     1.852090 H          1 UNL1 0.000
    24 H      -7.424306     1.892252     1.866322 H          1 UNL1 0.000
    25 H      -2.600469    -2.264714     1.732810 H          1 UNL1 0.000
    26 H      -4.406991    -3.968105     1.734000 H          1 UNL1 0.000
    27 H      -6.780108    -3.283101     1.775405 H          1 UNL1 0.000
    28 H      -7.396045    -0.882760     1.817961 H          1 UNL1 0.000
    29 H      -1.692069     0.631776     3.971432 H          1 UNL1 0.000
    30 H       2.036901     0.491468     1.876798 H          1 UNL1 0.000
    31 H      -1.662254     0.471458    -0.353016 H          1 UNL1 0.000
    32 C       1.041378     0.430009    -0.654092 C          1 UNL1 0.000
    33 C       1.262520     1.594355    -1.400723 C          1 UNL1 0.000
    34 C       2.015620     1.554462    -2.578496 C          1 UNL1 0.000
    35 C       2.559337     0.347510    -3.038387 C          1 UNL1 0.000
    36 C       2.323509    -0.823187    -2.310129 C          1 UNL1 0.000
    37 C       1.576661    -0.777605    -1.125195 C          1 UNL1 0.000
    38 C       3.370938     0.373200    -4.293136 C          1 UNL1 0.000
    39 C       4.038631    -0.884980    -4.783696 C          1 UNL1 0.000
    40 O       3.468467     1.421922    -4.931787 O          1 UNL1 0.000
    41 H       0.858509     2.547457    -1.063848 H          1 UNL1 0.000
    42 H       2.179323     2.476982    -3.133825 H          1 UNL1 0.000
    43 H       2.704695    -1.786541    -2.633758 H          1 UNL1 0.000
    44 H       1.412883    -1.697952    -0.566510 H          1 UNL1 0.000
    45 H       3.343910    -1.445648    -5.413853 H          1 UNL1 0.000
    46 H       4.398980    -1.506911    -3.962328 H          1 UNL1 0.000
    47 H       4.917516    -0.608602    -5.375388 H          1 UNL1 0.000
@<TRIPOS>BOND
     1      1      2   2
     2      2      3   1
     3      3      4   2
     4      4      5   1
     5      5      6   2
     6      6      1   1
     7      4      7   1
     8      7      8   1
     9      8      9   2
    10      9     10   1
    11     10     11   2
    12     11     12   1
    13     12     13   2
    14     13      8   1
    15     13      5   1
    16     14     15   2
    17     15     16   1
    18     16     17   2
    19     17     18   1
    20     18     19   2
    21     19     14   1
    22     16     20   1
    23      7     14   1
    24      1     21   1
    25      2     22   1
    26      3     23   1
    27      6     24   1
    28      9     25   1
    29     10     26   1
    30     11     27   1
    31     12     28   1
    32     15     29   1
    33     17     30   1
    34     19     31   1
    35     32     33   2
    36     33     34   1
    37     34     35   2
    38     35     36   1
    39     36     37   2
    40     37     32   1
    41     35     38   1
    42     38     39   1
    43     38     40   2
    44     33     41   1
    45     34     42   1
    46     36     43   1
    47     37     44   1
    48     39     45   1
    49     39     46   1
    50     39     47   1
    51     18     32   1
