# Produced with molli package
@<TRIPOS>MOLECULE
G_10_M
43 47 0 0 0
SMALL
USER_CHARGES

@<TRIPOS>ATOM
     1 C      -5.976495     3.588882     1.665954 C          1 UNL1 0.000
     2 C      -4.644115     3.988662     1.663040 C          1 UNL1 0.000
     3 C      -3.611782     3.046643     1.656063 C          1 UNL1 0.000
     4 C      -3.958042     1.683110     1.656751 C          1 UNL1 0.000
     5 C      -5.288122     1.258444     1.664056 C          1 UNL1 0.000
     6 C      -6.311020     2.230821     1.664809 C          1 UNL1 0.000
     7 N      -3.169038     0.545088     1.660128 N          1 UNL1 0.000
     8 C      -3.956895    -0.593955     1.687924 C          1 UNL1 0.000
     9 C      -3.608402    -1.956801     1.718495 C          1 UNL1 0.000
    10 C      -4.638805    -2.900501     1.740727 C          1 UNL1 0.000
    11 C      -5.971744    -2.503079     1.729113 C          1 UNL1 0.000
    12 C      -6.308532    -1.145778     1.698529 C          1 UNL1 0.000
    13 C      -5.287358    -0.171620     1.680116 C          1 UNL1 0.000
    14 C      -1.760126     0.543762     1.670971 C          1 UNL1 0.000
    15 C      -1.094716     0.511677     2.895131 C          1 UNL1 0.000
    16 C       0.291443     0.485268     2.887325 C          1 UNL1 0.000
    17 C       1.007595     0.481649     1.691694 C          1 UNL1 0.000
    18 C       0.338260     0.511029     0.456727 C          1 UNL1 0.000
    19 C      -1.064828     0.548688     0.455114 C          1 UNL1 0.000
    20 F       0.956037     0.457031     4.049703 F          1 UNL1 0.000
    21 H      -6.766182     4.336276     1.672982 H          1 UNL1 0.000
    22 H      -4.401036     5.048903     1.668817 H          1 UNL1 0.000
    23 H      -2.574034     3.366763     1.657167 H          1 UNL1 0.000
    24 H      -7.354455     1.928855     1.671803 H          1 UNL1 0.000
    25 H      -2.570109    -2.275215     1.727239 H          1 UNL1 0.000
    26 H      -4.393594    -3.959925     1.767958 H          1 UNL1 0.000
    27 H      -6.760034    -3.251777     1.746382 H          1 UNL1 0.000
    28 H      -7.352557    -0.845910     1.693155 H          1 UNL1 0.000
    29 H      -1.630507     0.505565     3.839164 H          1 UNL1 0.000
    30 H       2.093619     0.458385     1.734046 H          1 UNL1 0.000
    31 H      -1.610187     0.562689    -0.487563 H          1 UNL1 0.000
    32 C       1.097314     0.486941    -0.797348 C          1 UNL1 0.000
    33 C       1.201796     1.632630    -1.600448 C          1 UNL1 0.000
    34 C       1.952536     1.613115    -2.781211 C          1 UNL1 0.000
    35 C       2.605501     0.442832    -3.178969 C          1 UNL1 0.000
    36 C       2.500675    -0.707622    -2.392965 C          1 UNL1 0.000
    37 C       1.753633    -0.683216    -1.211037 C          1 UNL1 0.000
    38 C       3.383560     0.423237    -4.382993 C          1 UNL1 0.000
    39 N       4.016690     0.406321    -5.355634 N          1 UNL1 0.000
    40 H       0.708374     2.556095    -1.301559 H          1 UNL1 0.000
    41 H       2.026839     2.518259    -3.381450 H          1 UNL1 0.000
    42 H       2.999999    -1.628258    -2.689786 H          1 UNL1 0.000
    43 H       1.684000    -1.588900    -0.610333 H          1 UNL1 0.000
@<TRIPOS>BOND
     1      1      2   2
     2      2      3   1
     3      3      4   2
     4      4      5   1
     5      5      6   2
     6      6      1   1
     7      4      7   1
     8      7      8   1
     9      8      9   2
    10      9     10   1
    11     10     11   2
    12     11     12   1
    13     12     13   2
    14     13      8   1
    15     13      5   1
    16     14     15   2
    17     15     16   1
    18     16     17   2
    19     17     18   1
    20     18     19   2
    21     19     14   1
    22     16     20   1
    23      7     14   1
    24      1     21   1
    25      2     22   1
    26      3     23   1
    27      6     24   1
    28      9     25   1
    29     10     26   1
    30     11     27   1
    31     12     28   1
    32     15     29   1
    33     17     30   1
    34     19     31   1
    35     32     33   2
    36     33     34   1
    37     34     35   2
    38     35     36   1
    39     36     37   2
    40     37     32   1
    41     38     39   3
    42     35     38   1
    43     33     40   1
    44     34     41   1
    45     36     42   1
    46     37     43   1
    47     18     32   1
