# Produced with molli package
@<TRIPOS>MOLECULE
G_10_Q
40 44 0 0 0
SMALL
USER_CHARGES

@<TRIPOS>ATOM
     1 C      -6.029436     3.670301     1.576363 C          1 UNL1 0.000
     2 C      -4.693174     4.051130     1.511634 C          1 UNL1 0.000
     3 C      -3.671710     3.097339     1.539361 C          1 UNL1 0.000
     4 C      -4.031919     1.740731     1.638942 C          1 UNL1 0.000
     5 C      -5.367151     1.336303     1.711218 C          1 UNL1 0.000
     6 C      -6.378768     2.319678     1.671654 C          1 UNL1 0.000
     7 N      -3.255669     0.597009     1.733873 N          1 UNL1 0.000
     8 C      -4.060604    -0.527878     1.839428 C          1 UNL1 0.000
     9 C      -3.731220    -1.894227     1.918503 C          1 UNL1 0.000
    10 C      -4.772683    -2.822906     1.984681 C          1 UNL1 0.000
    11 C      -6.099785    -2.407654     1.976518 C          1 UNL1 0.000
    12 C      -6.418419    -1.047873     1.896326 C          1 UNL1 0.000
    13 C      -5.385184    -0.089350     1.817043 C          1 UNL1 0.000
    14 C      -1.844879     0.569236     1.749210 C          1 UNL1 0.000
    15 C      -1.188541     0.268134     2.940743 C          1 UNL1 0.000
    16 C       0.195158     0.186043     2.927229 C          1 UNL1 0.000
    17 C       0.916939     0.348129     1.745562 C          1 UNL1 0.000
    18 C       0.259377     0.619507     0.532741 C          1 UNL1 0.000
    19 C      -1.139466     0.767251     0.555282 C          1 UNL1 0.000
    20 F       0.851412    -0.072492     4.065447 F          1 UNL1 0.000
    21 H      -6.810130     4.426885     1.557430 H          1 UNL1 0.000
    22 H      -4.437464     5.106223     1.444251 H          1 UNL1 0.000
    23 H      -2.630756     3.405031     1.499458 H          1 UNL1 0.000
    24 H      -7.424713     2.032094     1.726277 H          1 UNL1 0.000
    25 H      -2.697995    -2.228804     1.913526 H          1 UNL1 0.000
    26 H      -4.540384    -3.884229     2.038338 H          1 UNL1 0.000
    27 H      -6.897484    -3.144591     2.027139 H          1 UNL1 0.000
    28 H      -7.458407    -0.734613     1.884577 H          1 UNL1 0.000
    29 H      -1.728396     0.117084     3.870480 H          1 UNL1 0.000
    30 H       1.999835     0.262478     1.789799 H          1 UNL1 0.000
    31 H      -1.674680     0.978842    -0.370456 H          1 UNL1 0.000
    32 C       1.002149     0.705142    -0.729902 C          1 UNL1 0.000
    33 N       0.744297     1.779876    -1.517925 N          1 UNL1 0.000
    34 C       1.436687     1.840580    -2.680914 C          1 UNL1 0.000
    35 C       2.343272     0.866354    -3.062936 C          1 UNL1 0.000
    36 N       2.603156    -0.216122    -2.299440 N          1 UNL1 0.000
    37 C       1.914555    -0.272277    -1.132375 C          1 UNL1 0.000
    38 H       1.241422     2.705179    -3.304506 H          1 UNL1 0.000
    39 H       2.886471     0.930377    -3.998828 H          1 UNL1 0.000
    40 H       2.109015    -1.151672    -0.527256 H          1 UNL1 0.000
@<TRIPOS>BOND
     1      1      2   2
     2      2      3   1
     3      3      4   2
     4      4      5   1
     5      5      6   2
     6      6      1   1
     7      4      7   1
     8      7      8   1
     9      8      9   2
    10      9     10   1
    11     10     11   2
    12     11     12   1
    13     12     13   2
    14     13      8   1
    15     13      5   1
    16     14     15   2
    17     15     16   1
    18     16     17   2
    19     17     18   1
    20     18     19   2
    21     19     14   1
    22     16     20   1
    23      7     14   1
    24      1     21   1
    25      2     22   1
    26      3     23   1
    27      6     24   1
    28      9     25   1
    29     10     26   1
    30     11     27   1
    31     12     28   1
    32     15     29   1
    33     17     30   1
    34     19     31   1
    35     32     33   2
    36     33     34   1
    37     34     35   2
    38     35     36   1
    39     36     37   2
    40     37     32   1
    41     34     38   1
    42     35     39   1
    43     37     40   1
    44     18     32   1
