# Produced with molli package
@<TRIPOS>MOLECULE
G_1_R
43 47 0 0 0
SMALL
USER_CHARGES

@<TRIPOS>ATOM
     1 C      -6.616627     3.467055     0.510553 C          1 UNL1 0.000
     2 C      -5.287329     3.874418     0.545144 C          1 UNL1 0.000
     3 C      -4.250319     2.937968     0.555294 C          1 UNL1 0.000
     4 C      -4.586912     1.571661     0.526277 C          1 UNL1 0.000
     5 C      -5.913945     1.140342     0.478815 C          1 UNL1 0.000
     6 C      -6.942448     2.107106     0.480729 C          1 UNL1 0.000
     7 N      -3.788402     0.439097     0.484378 N          1 UNL1 0.000
     8 C      -4.571992    -0.703474     0.422679 C          1 UNL1 0.000
     9 C      -4.217625    -2.065618     0.401050 C          1 UNL1 0.000
    10 C      -5.242292    -3.015168     0.380660 C          1 UNL1 0.000
    11 C      -6.576906    -2.624320     0.378372 C          1 UNL1 0.000
    12 C      -6.920444    -1.268485     0.401464 C          1 UNL1 0.000
    13 C      -5.904748    -0.288772     0.433916 C          1 UNL1 0.000
    14 C      -2.377129     0.445954     0.487887 C          1 UNL1 0.000
    15 C      -1.695614     0.804930     1.651322 C          1 UNL1 0.000
    16 C      -0.299184     0.792345     1.649337 C          1 UNL1 0.000
    17 C       0.421143     0.440208     0.493331 C          1 UNL1 0.000
    18 C      -0.296377     0.105107    -0.670368 C          1 UNL1 0.000
    19 C      -1.692064     0.094146    -0.675810 C          1 UNL1 0.000
    20 H      -7.410198     4.210082     0.499758 H          1 UNL1 0.000
    21 H      -5.049012     4.935637     0.557631 H          1 UNL1 0.000
    22 H      -3.214291     3.264785     0.566768 H          1 UNL1 0.000
    23 H      -7.983527     1.799400     0.446289 H          1 UNL1 0.000
    24 H      -3.177910    -2.378988     0.418178 H          1 UNL1 0.000
    25 H      -4.990889    -4.073338     0.373258 H          1 UNL1 0.000
    26 H      -7.361291    -3.377023     0.365256 H          1 UNL1 0.000
    27 H      -7.965858    -0.973787     0.406324 H          1 UNL1 0.000
    28 H      -2.233453     1.063350     2.560449 H          1 UNL1 0.000
    29 H       0.236689     1.053777     2.560541 H          1 UNL1 0.000
    30 H       0.234631    -0.129995    -1.590934 H          1 UNL1 0.000
    31 H      -2.229057    -0.150184    -1.589502 H          1 UNL1 0.000
    32 C       1.887353     0.423593     0.503291 C          1 UNL1 0.000
    33 N       2.491842     1.603496     0.798128 N          1 UNL1 0.000
    34 C       3.848157     1.637917     0.788754 C          1 UNL1 0.000
    35 C       4.629305     0.528703     0.510129 C          1 UNL1 0.000
    36 C       4.005998    -0.686421     0.227309 C          1 UNL1 0.000
    37 C       2.612204    -0.736143     0.221447 C          1 UNL1 0.000
    38 N       6.078216     0.644781     0.511282 N          1 UNL1 0.000
    39 O       6.727025    -0.284274     0.009510 O          1 UNL1 0.000
    40 O       6.574495     1.662301     1.012312 O          1 UNL1 0.000
    41 H       4.274892     2.612887     1.011192 H          1 UNL1 0.000
    42 H       4.579017    -1.585652     0.014667 H          1 UNL1 0.000
    43 H       2.099527    -1.670391     0.009883 H          1 UNL1 0.000
@<TRIPOS>BOND
     1      1      2   2
     2      2      3   1
     3      3      4   2
     4      4      5   1
     5      5      6   2
     6      6      1   1
     7      4      7   1
     8      7      8   1
     9      8      9   2
    10      9     10   1
    11     10     11   2
    12     11     12   1
    13     12     13   2
    14     13      8   1
    15     13      5   1
    16     14     15   2
    17     15     16   1
    18     16     17   2
    19     17     18   1
    20     18     19   2
    21     19     14   1
    22      7     14   1
    23      1     20   1
    24      2     21   1
    25      3     22   1
    26      6     23   1
    27      9     24   1
    28     10     25   1
    29     11     26   1
    30     12     27   1
    31     15     28   1
    32     16     29   1
    33     18     30   1
    34     19     31   1
    35     32     33   2
    36     33     34   1
    37     34     35   2
    38     35     36   1
    39     36     37   2
    40     37     32   1
    41     38     39   2
    42     38     40   1
    43     35     38   1
    44     34     41   1
    45     36     42   1
    46     37     43   1
    47     17     32   1
