# Produced with molli package
@<TRIPOS>MOLECULE
G_1_P
46 50 0 0 0
SMALL
USER_CHARGES

@<TRIPOS>ATOM
     1 C      -6.667371     3.571383     0.548501 C          1 UNL1 0.000
     2 C      -5.333394     3.965653     0.573636 C          1 UNL1 0.000
     3 C      -4.305614     3.018949     0.573547 C          1 UNL1 0.000
     4 C      -4.657187     1.657165     0.547081 C          1 UNL1 0.000
     5 C      -5.988787     1.237707     0.521338 C          1 UNL1 0.000
     6 C      -7.007187     2.214697     0.523003 C          1 UNL1 0.000
     7 N      -3.871354     0.516207     0.532101 N          1 UNL1 0.000
     8 C      -4.663494    -0.619413     0.503447 C          1 UNL1 0.000
     9 C      -4.318478    -1.983391     0.486828 C          1 UNL1 0.000
    10 C      -5.351717    -2.923769     0.460996 C          1 UNL1 0.000
    11 C      -6.683300    -2.521928     0.451031 C          1 UNL1 0.000
    12 C      -7.016444    -1.163254     0.468325 C          1 UNL1 0.000
    13 C      -5.992097    -0.192386     0.496699 C          1 UNL1 0.000
    14 C      -2.462304     0.513035     0.530628 C          1 UNL1 0.000
    15 C      -1.779339     0.541727     1.746604 C          1 UNL1 0.000
    16 C      -0.383698     0.553907     1.736161 C          1 UNL1 0.000
    17 C       0.327583     0.541826     0.523582 C          1 UNL1 0.000
    18 C      -0.388372     0.507796    -0.685401 C          1 UNL1 0.000
    19 C      -1.783996     0.492346    -0.688608 C          1 UNL1 0.000
    20 H      -7.453581     4.322260     0.547862 H          1 UNL1 0.000
    21 H      -5.085149     5.024379     0.592474 H          1 UNL1 0.000
    22 H      -3.265679     3.332853     0.591085 H          1 UNL1 0.000
    23 H      -8.051786     1.917214     0.502640 H          1 UNL1 0.000
    24 H      -3.280475    -2.302764     0.496166 H          1 UNL1 0.000
    25 H      -5.108955    -3.983994     0.449125 H          1 UNL1 0.000
    26 H      -7.473744    -3.268164     0.430512 H          1 UNL1 0.000
    27 H      -8.059083    -0.859718     0.461196 H          1 UNL1 0.000
    28 H      -2.315991     0.555176     2.691978 H          1 UNL1 0.000
    29 H       0.155757     0.577685     2.681350 H          1 UNL1 0.000
    30 H       0.146161     0.502915    -1.633465 H          1 UNL1 0.000
    31 H      -2.325385     0.474539    -1.631253 H          1 UNL1 0.000
    32 C       1.791534     0.584745     0.520773 C          1 UNL1 0.000
    33 C       2.547781    -0.596131     0.461063 C          1 UNL1 0.000
    34 C       3.945091    -0.549403     0.462514 C          1 UNL1 0.000
    35 C       4.594021     0.682707     0.510489 C          1 UNL1 0.000
    36 C       3.860840     1.862339     0.596897 C          1 UNL1 0.000
    37 C       2.465546     1.813837     0.591498 C          1 UNL1 0.000
    38 O       5.957835     0.780549     0.549714 O          1 UNL1 0.000
    39 C       6.543472     0.327547    -0.670156 C          1 UNL1 0.000
    40 H       2.047398    -1.561709     0.425392 H          1 UNL1 0.000
    41 H       4.514115    -1.473798     0.445396 H          1 UNL1 0.000
    42 H       4.373288     2.817698     0.662118 H          1 UNL1 0.000
    43 H       1.901477     2.742518     0.647153 H          1 UNL1 0.000
    44 H       7.598778     0.616703    -0.660616 H          1 UNL1 0.000
    45 H       6.072542     0.800535    -1.539681 H          1 UNL1 0.000
    46 H       6.493621    -0.762827    -0.751664 H          1 UNL1 0.000
@<TRIPOS>BOND
     1      1      2   2
     2      2      3   1
     3      3      4   2
     4      4      5   1
     5      5      6   2
     6      6      1   1
     7      4      7   1
     8      7      8   1
     9      8      9   2
    10      9     10   1
    11     10     11   2
    12     11     12   1
    13     12     13   2
    14     13      8   1
    15     13      5   1
    16     14     15   2
    17     15     16   1
    18     16     17   2
    19     17     18   1
    20     18     19   2
    21     19     14   1
    22      7     14   1
    23      1     20   1
    24      2     21   1
    25      3     22   1
    26      6     23   1
    27      9     24   1
    28     10     25   1
    29     11     26   1
    30     12     27   1
    31     15     28   1
    32     16     29   1
    33     18     30   1
    34     19     31   1
    35     32     33   2
    36     33     34   1
    37     34     35   2
    38     35     36   1
    39     36     37   2
    40     37     32   1
    41     38     39   1
    42     35     38   1
    43     33     40   1
    44     34     41   1
    45     36     42   1
    46     37     43   1
    47     39     44   1
    48     39     45   1
    49     39     46   1
    50     17     32   1
