# Produced with molli package
@<TRIPOS>MOLECULE
G_1_M
43 47 0 0 0
SMALL
USER_CHARGES

@<TRIPOS>ATOM
     1 C      -6.752461     3.490745     0.624922 C          1 UNL1 0.000
     2 C      -5.426271     3.907032     0.670175 C          1 UNL1 0.000
     3 C      -4.382642     2.977841     0.672937 C          1 UNL1 0.000
     4 C      -4.709222     1.609555     0.626650 C          1 UNL1 0.000
     5 C      -6.033020     1.169616     0.570514 C          1 UNL1 0.000
     6 C      -7.068373     2.129004     0.578259 C          1 UNL1 0.000
     7 N      -3.902454     0.482930     0.574828 N          1 UNL1 0.000
     8 C      -4.678066    -0.664436     0.503799 C          1 UNL1 0.000
     9 C      -4.314821    -2.023965     0.473641 C          1 UNL1 0.000
    10 C      -5.333577    -2.979953     0.444980 C          1 UNL1 0.000
    11 C      -6.670816    -2.597979     0.441479 C          1 UNL1 0.000
    12 C      -7.023150    -1.244698     0.471888 C          1 UNL1 0.000
    13 C      -6.013780    -0.258838     0.514019 C          1 UNL1 0.000
    14 C      -2.491135     0.501843     0.582118 C          1 UNL1 0.000
    15 C      -1.816371     0.842103     1.755502 C          1 UNL1 0.000
    16 C      -0.420041     0.845076     1.758113 C          1 UNL1 0.000
    17 C       0.303500     0.536288     0.593078 C          1 UNL1 0.000
    18 C      -0.403730     0.211808    -0.577856 C          1 UNL1 0.000
    19 C      -1.799008     0.180098    -0.586249 C          1 UNL1 0.000
    20 H      -7.551473     4.228010     0.619470 H          1 UNL1 0.000
    21 H      -5.196107     4.969742     0.696807 H          1 UNL1 0.000
    22 H      -3.349239     3.311589     0.692647 H          1 UNL1 0.000
    23 H      -8.107093     1.814186     0.536349 H          1 UNL1 0.000
    24 H      -3.273016    -2.330733     0.490695 H          1 UNL1 0.000
    25 H      -5.075331    -4.036455     0.431765 H          1 UNL1 0.000
    26 H      -7.450264    -3.355678     0.421737 H          1 UNL1 0.000
    27 H      -8.070481    -0.956803     0.475821 H          1 UNL1 0.000
    28 H      -2.360604     1.070016     2.669018 H          1 UNL1 0.000
    29 H       0.107475     1.078989     2.681066 H          1 UNL1 0.000
    30 H       0.136454    -0.009219    -1.496687 H          1 UNL1 0.000
    31 H      -2.329942    -0.061030    -1.504194 H          1 UNL1 0.000
    32 C       1.769462     0.548767     0.596349 C          1 UNL1 0.000
    33 C       2.495222    -0.651069     0.539176 C          1 UNL1 0.000
    34 C       3.893535    -0.642961     0.532708 C          1 UNL1 0.000
    35 C       4.587056     0.569409     0.579299 C          1 UNL1 0.000
    36 C       3.876084     1.771338     0.637716 C          1 UNL1 0.000
    37 C       2.477518     1.759107     0.648612 C          1 UNL1 0.000
    38 C       6.021387     0.579792     0.564384 C          1 UNL1 0.000
    39 N       7.180541     0.587547     0.550842 N          1 UNL1 0.000
    40 H       1.969027    -1.603800     0.504758 H          1 UNL1 0.000
    41 H       4.432118    -1.587862     0.490265 H          1 UNL1 0.000
    42 H       4.401423     2.724037     0.671623 H          1 UNL1 0.000
    43 H       1.937879     2.704093     0.686909 H          1 UNL1 0.000
@<TRIPOS>BOND
     1      1      2   2
     2      2      3   1
     3      3      4   2
     4      4      5   1
     5      5      6   2
     6      6      1   1
     7      4      7   1
     8      7      8   1
     9      8      9   2
    10      9     10   1
    11     10     11   2
    12     11     12   1
    13     12     13   2
    14     13      8   1
    15     13      5   1
    16     14     15   2
    17     15     16   1
    18     16     17   2
    19     17     18   1
    20     18     19   2
    21     19     14   1
    22      7     14   1
    23      1     20   1
    24      2     21   1
    25      3     22   1
    26      6     23   1
    27      9     24   1
    28     10     25   1
    29     11     26   1
    30     12     27   1
    31     15     28   1
    32     16     29   1
    33     18     30   1
    34     19     31   1
    35     32     33   2
    36     33     34   1
    37     34     35   2
    38     35     36   1
    39     36     37   2
    40     37     32   1
    41     38     39   3
    42     35     38   1
    43     33     40   1
    44     34     41   1
    45     36     42   1
    46     37     43   1
    47     17     32   1
