# Produced with molli package
@<TRIPOS>MOLECULE
G_1_L
46 51 0 0 0
SMALL
USER_CHARGES

@<TRIPOS>ATOM
     1 C      -6.615981     3.604661     0.591343 C          1 UNL1 0.000
     2 C      -5.276556     3.980106     0.580932 C          1 UNL1 0.000
     3 C      -4.261755     3.019229     0.565112 C          1 UNL1 0.000
     4 C      -4.632598     1.662062     0.558152 C          1 UNL1 0.000
     5 C      -5.970038     1.261816     0.566945 C          1 UNL1 0.000
     6 C      -6.975023     2.252792     0.584900 C          1 UNL1 0.000
     7 N      -3.863121     0.509782     0.545051 N          1 UNL1 0.000
     8 C      -4.672510    -0.614443     0.535533 C          1 UNL1 0.000
     9 C      -4.348711    -1.983258     0.513251 C          1 UNL1 0.000
    10 C      -5.396074    -2.908338     0.509842 C          1 UNL1 0.000
    11 C      -6.721638    -2.486867     0.530039 C          1 UNL1 0.000
    12 C      -7.033762    -1.123516     0.551941 C          1 UNL1 0.000
    13 C      -5.995016    -0.167953     0.552963 C          1 UNL1 0.000
    14 C      -2.453889     0.484271     0.548951 C          1 UNL1 0.000
    15 C      -1.777421     0.451784     1.768963 C          1 UNL1 0.000
    16 C      -0.381506     0.433927     1.767457 C          1 UNL1 0.000
    17 C       0.337276     0.448448     0.559620 C          1 UNL1 0.000
    18 C      -0.372161     0.474988    -0.653721 C          1 UNL1 0.000
    19 C      -1.768153     0.493804    -0.665984 C          1 UNL1 0.000
    20 H      -7.391793     4.366232     0.604191 H          1 UNL1 0.000
    21 H      -5.013463     5.035463     0.585421 H          1 UNL1 0.000
    22 H      -3.217619     3.318589     0.557862 H          1 UNL1 0.000
    23 H      -8.023576     1.969550     0.592762 H          1 UNL1 0.000
    24 H      -3.315480    -2.318192     0.497704 H          1 UNL1 0.000
    25 H      -5.169429    -3.971943     0.491272 H          1 UNL1 0.000
    26 H      -7.523248    -3.221291     0.528018 H          1 UNL1 0.000
    27 H      -8.071839    -0.804348     0.566791 H          1 UNL1 0.000
    28 H      -2.319679     0.443629     2.711202 H          1 UNL1 0.000
    29 H       0.152335     0.412752     2.715822 H          1 UNL1 0.000
    30 H       0.169333     0.484894    -1.597921 H          1 UNL1 0.000
    31 H      -2.302943     0.517101    -1.612160 H          1 UNL1 0.000
    32 C       1.803095     0.451835     0.565561 C          1 UNL1 0.000
    33 C       2.506490     1.664504     0.582618 C          1 UNL1 0.000
    34 C       3.905767     1.707057     0.588597 C          1 UNL1 0.000
    35 C       4.587702     0.486708     0.576700 C          1 UNL1 0.000
    36 C       3.930126    -0.742645     0.559794 C          1 UNL1 0.000
    37 C       2.520490    -0.758522     0.554391 C          1 UNL1 0.000
    38 N       5.939264     0.223713     0.578512 N          1 UNL1 0.000
    39 C       6.158246    -1.128340     0.563125 C          1 UNL1 0.000
    40 C       4.931814    -1.752757     0.551463 C          1 UNL1 0.000
    41 H       1.955835     2.604067     0.591700 H          1 UNL1 0.000
    42 H       4.432841     2.655174     0.601870 H          1 UNL1 0.000
    43 H       1.992726    -1.708439     0.541298 H          1 UNL1 0.000
    44 H       6.660354     0.931509     0.589453 H          1 UNL1 0.000
    45 H       7.163599    -1.527454     0.561807 H          1 UNL1 0.000
    46 H       4.769046    -2.822388     0.538146 H          1 UNL1 0.000
@<TRIPOS>BOND
     1      1      2   2
     2      2      3   1
     3      3      4   2
     4      4      5   1
     5      5      6   2
     6      6      1   1
     7      4      7   1
     8      7      8   1
     9      8      9   2
    10      9     10   1
    11     10     11   2
    12     11     12   1
    13     12     13   2
    14     13      8   1
    15     13      5   1
    16     14     15   2
    17     15     16   1
    18     16     17   2
    19     17     18   1
    20     18     19   2
    21     19     14   1
    22      7     14   1
    23      1     20   1
    24      2     21   1
    25      3     22   1
    26      6     23   1
    27      9     24   1
    28     10     25   1
    29     11     26   1
    30     12     27   1
    31     15     28   1
    32     16     29   1
    33     18     30   1
    34     19     31   1
    35     32     33   2
    36     33     34   1
    37     34     35   2
    38     35     36   1
    39     36     37   2
    40     37     32   1
    41     35     38   1
    42     38     39   1
    43     39     40   2
    44     40     36   1
    45     33     41   1
    46     34     42   1
    47     37     43   1
    48     38     44   1
    49     39     45   1
    50     40     46   1
    51     17     32   1
