# Produced with molli package
@<TRIPOS>MOLECULE
G_1_O
41 45 0 0 0
SMALL
USER_CHARGES

@<TRIPOS>ATOM
     1 C      -6.670053     3.537575     0.547901 C          1 UNL1 0.000
     2 C      -5.335182     3.927121     0.587447 C          1 UNL1 0.000
     3 C      -4.310305     2.977354     0.581803 C          1 UNL1 0.000
     4 C      -4.665836     1.617091     0.531949 C          1 UNL1 0.000
     5 C      -5.998208     1.202693     0.483672 C          1 UNL1 0.000
     6 C      -7.013933     2.182548     0.498153 C          1 UNL1 0.000
     7 N      -3.882646     0.474950     0.492475 N          1 UNL1 0.000
     8 C      -4.678577    -0.657363     0.423063 C          1 UNL1 0.000
     9 C      -4.338797    -2.022442     0.385347 C          1 UNL1 0.000
    10 C      -5.374775    -2.959348     0.348588 C          1 UNL1 0.000
    11 C      -6.705001    -2.553052     0.346981 C          1 UNL1 0.000
    12 C      -7.033317    -1.193643     0.383991 C          1 UNL1 0.000
    13 C      -6.006137    -0.226409     0.428287 C          1 UNL1 0.000
    14 C      -2.473700     0.462854     0.536098 C          1 UNL1 0.000
    15 C      -1.830130     0.628586     1.763039 C          1 UNL1 0.000
    16 C      -0.435393     0.598444     1.803523 C          1 UNL1 0.000
    17 C       0.317073     0.414067     0.629871 C          1 UNL1 0.000
    18 C      -0.360474     0.267455    -0.594136 C          1 UNL1 0.000
    19 C      -1.755577     0.282214    -0.646655 C          1 UNL1 0.000
    20 H      -7.453767     4.291003     0.552122 H          1 UNL1 0.000
    21 H      -5.083021     4.984647     0.619833 H          1 UNL1 0.000
    22 H      -3.269346     3.288172     0.604691 H          1 UNL1 0.000
    23 H      -8.059073     1.888793     0.464096 H          1 UNL1 0.000
    24 H      -3.302139    -2.346119     0.396098 H          1 UNL1 0.000
    25 H      -5.135550    -4.020119     0.325578 H          1 UNL1 0.000
    26 H      -7.497947    -3.296393     0.320926 H          1 UNL1 0.000
    27 H      -8.075095    -0.886712     0.386928 H          1 UNL1 0.000
    28 H      -2.396916     0.762326     2.681113 H          1 UNL1 0.000
    29 H       0.074765     0.718815     2.757562 H          1 UNL1 0.000
    30 H       0.206087     0.154347    -1.516563 H          1 UNL1 0.000
    31 H      -2.264593     0.177408    -1.601591 H          1 UNL1 0.000
    32 C       1.778823     0.368133     0.686526 C          1 UNL1 0.000
    33 N       2.403177     1.564669     0.804613 N          1 UNL1 0.000
    34 C       3.752994     1.554785     0.858967 C          1 UNL1 0.000
    35 C       4.519265     0.402189     0.811806 C          1 UNL1 0.000
    36 C       3.863685    -0.817476     0.698514 C          1 UNL1 0.000
    37 C       2.473291    -0.838550     0.631361 C          1 UNL1 0.000
    38 H       4.218054     2.532698     0.944786 H          1 UNL1 0.000
    39 H       5.600903     0.454575     0.863544 H          1 UNL1 0.000
    40 H       4.428249    -1.744693     0.663984 H          1 UNL1 0.000
    41 H       1.940602    -1.780225     0.546807 H          1 UNL1 0.000
@<TRIPOS>BOND
     1      1      2   2
     2      2      3   1
     3      3      4   2
     4      4      5   1
     5      5      6   2
     6      6      1   1
     7      4      7   1
     8      7      8   1
     9      8      9   2
    10      9     10   1
    11     10     11   2
    12     11     12   1
    13     12     13   2
    14     13      8   1
    15     13      5   1
    16     14     15   2
    17     15     16   1
    18     16     17   2
    19     17     18   1
    20     18     19   2
    21     19     14   1
    22      7     14   1
    23      1     20   1
    24      2     21   1
    25      3     22   1
    26      6     23   1
    27      9     24   1
    28     10     25   1
    29     11     26   1
    30     12     27   1
    31     15     28   1
    32     16     29   1
    33     18     30   1
    34     19     31   1
    35     32     33   2
    36     33     34   1
    37     34     35   2
    38     35     36   1
    39     36     37   2
    40     37     32   1
    41     34     38   1
    42     35     39   1
    43     36     40   1
    44     37     41   1
    45     17     32   1
