# Produced with molli package
@<TRIPOS>MOLECULE
G_1_S
47 51 0 0 0
SMALL
USER_CHARGES

@<TRIPOS>ATOM
     1 C      -6.678393     3.519359     0.562028 C          1 UNL1 0.000
     2 C      -5.344442     3.913479     0.572070 C          1 UNL1 0.000
     3 C      -4.316658     2.966806     0.571282 C          1 UNL1 0.000
     4 C      -4.668452     1.604620     0.554010 C          1 UNL1 0.000
     5 C      -5.999772     1.185915     0.531738 C          1 UNL1 0.000
     6 C      -7.018587     2.162670     0.543895 C          1 UNL1 0.000
     7 N      -3.881923     0.463940     0.531246 N          1 UNL1 0.000
     8 C      -4.674953    -0.671245     0.479882 C          1 UNL1 0.000
     9 C      -4.333177    -2.035574     0.442701 C          1 UNL1 0.000
    10 C      -5.368229    -2.974342     0.410350 C          1 UNL1 0.000
    11 C      -6.699471    -2.570878     0.416216 C          1 UNL1 0.000
    12 C      -7.029779    -1.212421     0.456127 C          1 UNL1 0.000
    13 C      -6.004053    -0.243429     0.490927 C          1 UNL1 0.000
    14 C      -2.471938     0.463669     0.537870 C          1 UNL1 0.000
    15 C      -1.794087     0.605261     1.749482 C          1 UNL1 0.000
    16 C      -0.397459     0.621796     1.746055 C          1 UNL1 0.000
    17 C       0.320843     0.510511     0.542842 C          1 UNL1 0.000
    18 C      -0.390767     0.374580    -0.662252 C          1 UNL1 0.000
    19 C      -1.786282     0.344999    -0.671095 C          1 UNL1 0.000
    20 H      -7.464642     4.270250     0.563103 H          1 UNL1 0.000
    21 H      -5.095798     4.972337     0.577626 H          1 UNL1 0.000
    22 H      -3.276894     3.281128     0.572992 H          1 UNL1 0.000
    23 H      -8.063142     1.865228     0.530266 H          1 UNL1 0.000
    24 H      -3.295924    -2.357656     0.444197 H          1 UNL1 0.000
    25 H      -5.127907    -4.034770     0.382311 H          1 UNL1 0.000
    26 H      -7.491398    -3.315406     0.390797 H          1 UNL1 0.000
    27 H      -8.072192    -0.907105     0.461186 H          1 UNL1 0.000
    28 H      -2.336103     0.691231     2.688220 H          1 UNL1 0.000
    29 H       0.134642     0.720371     2.690523 H          1 UNL1 0.000
    30 H       0.147220     0.302349    -1.605751 H          1 UNL1 0.000
    31 H      -2.321806     0.251970    -1.612735 H          1 UNL1 0.000
    32 C       1.786044     0.539971     0.538579 C          1 UNL1 0.000
    33 C       2.479588     1.752388     0.635589 C          1 UNL1 0.000
    34 C       3.878148     1.778175     0.612594 C          1 UNL1 0.000
    35 C       4.616414     0.591423     0.495824 C          1 UNL1 0.000
    36 C       3.928940    -0.621866     0.393224 C          1 UNL1 0.000
    37 C       2.527444    -0.644018     0.418544 C          1 UNL1 0.000
    38 C       6.108711     0.698536     0.475199 C          1 UNL1 0.000
    39 C       6.974795    -0.535089     0.513986 C          1 UNL1 0.000
    40 O       6.630793     1.811917     0.416981 O          1 UNL1 0.000
    41 H       1.933622     2.690411     0.719370 H          1 UNL1 0.000
    42 H       4.388946     2.737622     0.682517 H          1 UNL1 0.000
    43 H       4.443144    -1.570158     0.281085 H          1 UNL1 0.000
    44 H       2.010441    -1.599434     0.341176 H          1 UNL1 0.000
    45 H       7.438538    -0.676365    -0.465967 H          1 UNL1 0.000
    46 H       6.438087    -1.440850     0.791370 H          1 UNL1 0.000
    47 H       7.754009    -0.386286     1.268238 H          1 UNL1 0.000
@<TRIPOS>BOND
     1      1      2   2
     2      2      3   1
     3      3      4   2
     4      4      5   1
     5      5      6   2
     6      6      1   1
     7      4      7   1
     8      7      8   1
     9      8      9   2
    10      9     10   1
    11     10     11   2
    12     11     12   1
    13     12     13   2
    14     13      8   1
    15     13      5   1
    16     14     15   2
    17     15     16   1
    18     16     17   2
    19     17     18   1
    20     18     19   2
    21     19     14   1
    22      7     14   1
    23      1     20   1
    24      2     21   1
    25      3     22   1
    26      6     23   1
    27      9     24   1
    28     10     25   1
    29     11     26   1
    30     12     27   1
    31     15     28   1
    32     16     29   1
    33     18     30   1
    34     19     31   1
    35     32     33   2
    36     33     34   1
    37     34     35   2
    38     35     36   1
    39     36     37   2
    40     37     32   1
    41     35     38   1
    42     38     39   1
    43     38     40   2
    44     33     41   1
    45     34     42   1
    46     36     43   1
    47     37     44   1
    48     39     45   1
    49     39     46   1
    50     39     47   1
    51     17     32   1
