# Produced with molli package
@<TRIPOS>MOLECULE
G_1_Q
40 44 0 0 0
SMALL
USER_CHARGES

@<TRIPOS>ATOM
     1 C      -6.780892     3.559912     0.480654 C          1 UNL1 0.000
     2 C      -5.453360     3.971936     0.422687 C          1 UNL1 0.000
     3 C      -4.412733     3.039439     0.405912 C          1 UNL1 0.000
     4 C      -4.744826     1.673223     0.449524 C          1 UNL1 0.000
     5 C      -6.069767     1.236158     0.510533 C          1 UNL1 0.000
     6 C      -7.101438     2.199051     0.523112 C          1 UNL1 0.000
     7 N      -3.943174     0.543674     0.471555 N          1 UNL1 0.000
     8 C      -4.719642    -0.602394     0.527704 C          1 UNL1 0.000
     9 C      -4.356368    -1.961866     0.544855 C          1 UNL1 0.000
    10 C      -5.375978    -2.916118     0.590606 C          1 UNL1 0.000
    11 C      -6.712347    -2.532007     0.622226 C          1 UNL1 0.000
    12 C      -7.063864    -1.177932     0.604163 C          1 UNL1 0.000
    13 C      -6.053603    -0.193454     0.550076 C          1 UNL1 0.000
    14 C      -2.533751     0.556729     0.472062 C          1 UNL1 0.000
    15 C      -1.855844     0.428411     1.685094 C          1 UNL1 0.000
    16 C      -0.460439     0.436500     1.683790 C          1 UNL1 0.000
    17 C       0.258527     0.555764     0.480848 C          1 UNL1 0.000
    18 C      -0.453303     0.689016    -0.725127 C          1 UNL1 0.000
    19 C      -1.849681     0.693995    -0.735902 C          1 UNL1 0.000
    20 H      -7.576993     4.300126     0.496110 H          1 UNL1 0.000
    21 H      -5.219802     5.033822     0.393988 H          1 UNL1 0.000
    22 H      -3.377732     3.368059     0.368785 H          1 UNL1 0.000
    23 H      -8.140991     1.887611     0.571656 H          1 UNL1 0.000
    24 H      -3.314905    -2.268086     0.514941 H          1 UNL1 0.000
    25 H      -5.118971    -3.973018     0.599478 H          1 UNL1 0.000
    26 H      -7.492239    -3.288698     0.658334 H          1 UNL1 0.000
    27 H      -8.110345    -0.888508     0.626399 H          1 UNL1 0.000
    28 H      -2.398191     0.341685     2.623632 H          1 UNL1 0.000
    29 H       0.071505     0.360234     2.630672 H          1 UNL1 0.000
    30 H       0.086714     0.791792    -1.664946 H          1 UNL1 0.000
    31 H      -2.385898     0.791038    -1.676842 H          1 UNL1 0.000
    32 C       1.719050     0.534231     0.485116 C          1 UNL1 0.000
    33 N       2.342816     1.739068     0.472780 N          1 UNL1 0.000
    34 C       3.695465     1.700209     0.492815 C          1 UNL1 0.000
    35 C       4.407369     0.512586     0.518454 C          1 UNL1 0.000
    36 N       3.800598    -0.694729     0.526055 N          1 UNL1 0.000
    37 C       2.444987    -0.654888     0.509905 C          1 UNL1 0.000
    38 H       4.197432     2.660996     0.489403 H          1 UNL1 0.000
    39 H       5.491189     0.501287     0.534197 H          1 UNL1 0.000
    40 H       1.949405    -1.620056     0.516383 H          1 UNL1 0.000
@<TRIPOS>BOND
     1      1      2   2
     2      2      3   1
     3      3      4   2
     4      4      5   1
     5      5      6   2
     6      6      1   1
     7      4      7   1
     8      7      8   1
     9      8      9   2
    10      9     10   1
    11     10     11   2
    12     11     12   1
    13     12     13   2
    14     13      8   1
    15     13      5   1
    16     14     15   2
    17     15     16   1
    18     16     17   2
    19     17     18   1
    20     18     19   2
    21     19     14   1
    22      7     14   1
    23      1     20   1
    24      2     21   1
    25      3     22   1
    26      6     23   1
    27      9     24   1
    28     10     25   1
    29     11     26   1
    30     12     27   1
    31     15     28   1
    32     16     29   1
    33     18     30   1
    34     19     31   1
    35     32     33   2
    36     33     34   1
    37     34     35   2
    38     35     36   1
    39     36     37   2
    40     37     32   1
    41     34     38   1
    42     35     39   1
    43     37     40   1
    44     17     32   1
