# Produced with molli package
@<TRIPOS>MOLECULE
G_1_T
45 49 0 0 0
SMALL
USER_CHARGES

@<TRIPOS>ATOM
     1 C      -6.637979     3.671914     0.594860 C          1 UNL1 0.000
     2 C      -5.296815     4.042070     0.589956 C          1 UNL1 0.000
     3 C      -4.287352     3.076349     0.575772 C          1 UNL1 0.000
     4 C      -4.662674     1.720832     0.563235 C          1 UNL1 0.000
     5 C      -6.002686     1.326069     0.556711 C          1 UNL1 0.000
     6 C      -7.002158     2.321635     0.581380 C          1 UNL1 0.000
     7 N      -3.897449     0.565509     0.513933 N          1 UNL1 0.000
     8 C      -4.713165    -0.554501     0.483593 C          1 UNL1 0.000
     9 C      -4.395934    -1.926287     0.463939 C          1 UNL1 0.000
    10 C      -5.447457    -2.846609     0.479307 C          1 UNL1 0.000
    11 C      -6.770174    -2.419372     0.509654 C          1 UNL1 0.000
    12 C      -7.076356    -1.054304     0.529232 C          1 UNL1 0.000
    13 C      -6.032470    -0.103241     0.524632 C          1 UNL1 0.000
    14 C      -2.487154     0.536477     0.508268 C          1 UNL1 0.000
    15 C      -1.795155     0.828888     1.683829 C          1 UNL1 0.000
    16 C      -0.400220     0.794286     1.674758 C          1 UNL1 0.000
    17 C       0.306030     0.493234     0.496752 C          1 UNL1 0.000
    18 C      -0.418101     0.212335    -0.674780 C          1 UNL1 0.000
    19 C      -1.814244     0.220942    -0.673357 C          1 UNL1 0.000
    20 H      -7.410092     4.437041     0.603725 H          1 UNL1 0.000
    21 H      -5.028822     5.095950     0.591600 H          1 UNL1 0.000
    22 H      -3.241937     3.372690     0.559148 H          1 UNL1 0.000
    23 H      -8.052486     2.043119     0.579711 H          1 UNL1 0.000
    24 H      -3.365116    -2.267163     0.453972 H          1 UNL1 0.000
    25 H      -5.225109    -3.911533     0.473665 H          1 UNL1 0.000
    26 H      -7.575177    -3.150118     0.524408 H          1 UNL1 0.000
    27 H      -8.112194    -0.730747     0.559428 H          1 UNL1 0.000
    28 H      -2.325593     1.053678     2.606217 H          1 UNL1 0.000
    29 H       0.142611     0.994798     2.596541 H          1 UNL1 0.000
    30 H       0.111168    -0.003765    -1.601240 H          1 UNL1 0.000
    31 H      -2.358778     0.014888    -1.591350 H          1 UNL1 0.000
    32 C       1.771841     0.475287     0.493517 C          1 UNL1 0.000
    33 C       2.503535     1.668391     0.577433 C          1 UNL1 0.000
    34 C       3.901413     1.653736     0.583555 C          1 UNL1 0.000
    35 C       4.596800     0.443033     0.506035 C          1 UNL1 0.000
    36 C       3.872986    -0.751715     0.425761 C          1 UNL1 0.000
    37 C       2.475289    -0.734695     0.415603 C          1 UNL1 0.000
    38 C       6.095999     0.411033     0.531113 C          1 UNL1 0.000
    39 H       1.983506     2.622595     0.634053 H          1 UNL1 0.000
    40 H       4.439860     2.596298     0.649419 H          1 UNL1 0.000
    41 H       4.393303    -1.705494     0.373790 H          1 UNL1 0.000
    42 H       1.933811    -1.676688     0.358392 H          1 UNL1 0.000
    43 H       6.477713    -0.145084    -0.331219 H          1 UNL1 0.000
    44 H       6.445907    -0.066755     1.451715 H          1 UNL1 0.000
    45 H       6.519651     1.419874     0.489691 H          1 UNL1 0.000
@<TRIPOS>BOND
     1      1      2   2
     2      2      3   1
     3      3      4   2
     4      4      5   1
     5      5      6   2
     6      6      1   1
     7      4      7   1
     8      7      8   1
     9      8      9   2
    10      9     10   1
    11     10     11   2
    12     11     12   1
    13     12     13   2
    14     13      8   1
    15     13      5   1
    16     14     15   2
    17     15     16   1
    18     16     17   2
    19     17     18   1
    20     18     19   2
    21     19     14   1
    22      7     14   1
    23      1     20   1
    24      2     21   1
    25      3     22   1
    26      6     23   1
    27      9     24   1
    28     10     25   1
    29     11     26   1
    30     12     27   1
    31     15     28   1
    32     16     29   1
    33     18     30   1
    34     19     31   1
    35     32     33   2
    36     33     34   1
    37     34     35   2
    38     35     36   1
    39     36     37   2
    40     37     32   1
    41     35     38   1
    42     33     39   1
    43     34     40   1
    44     36     41   1
    45     37     42   1
    46     38     43   1
    47     38     44   1
    48     38     45   1
    49     17     32   1
