# Produced with molli package
@<TRIPOS>MOLECULE
G_1_K
44 48 0 0 0
SMALL
USER_CHARGES

@<TRIPOS>ATOM
     1 C      -6.585614     3.612351     0.332140 C          1 UNL1 0.000
     2 C      -5.248328     3.994918     0.336212 C          1 UNL1 0.000
     3 C      -4.229190     3.039271     0.355300 C          1 UNL1 0.000
     4 C      -4.593081     1.680117     0.373524 C          1 UNL1 0.000
     5 C      -5.928191     1.272822     0.378488 C          1 UNL1 0.000
     6 C      -6.937944     2.258648     0.350690 C          1 UNL1 0.000
     7 N      -3.817368     0.532866     0.420201 N          1 UNL1 0.000
     8 C      -4.620564    -0.595630     0.451965 C          1 UNL1 0.000
     9 C      -4.289772    -1.962932     0.481652 C          1 UNL1 0.000
    10 C      -5.331771    -2.893961     0.477391 C          1 UNL1 0.000
    11 C      -6.659309    -2.479788     0.447128 C          1 UNL1 0.000
    12 C      -6.978697    -1.118212     0.417925 C          1 UNL1 0.000
    13 C      -5.945348    -0.156788     0.414325 C          1 UNL1 0.000
    14 C      -2.407689     0.517766     0.432315 C          1 UNL1 0.000
    15 C      -1.738458     0.310355     1.638749 C          1 UNL1 0.000
    16 C      -0.342744     0.317573     1.647028 C          1 UNL1 0.000
    17 C       0.383909     0.513747     0.459463 C          1 UNL1 0.000
    18 C      -0.318444     0.708772    -0.742582 C          1 UNL1 0.000
    19 C      -1.713971     0.720639    -0.761194 C          1 UNL1 0.000
    20 H      -7.365191     4.370076     0.318762 H          1 UNL1 0.000
    21 H      -4.990467     5.051567     0.328607 H          1 UNL1 0.000
    22 H      -3.186960     3.344849     0.367779 H          1 UNL1 0.000
    23 H      -7.985198     1.970526     0.351917 H          1 UNL1 0.000
    24 H      -3.255176    -2.293305     0.495630 H          1 UNL1 0.000
    25 H      -5.099611    -3.956464     0.493587 H          1 UNL1 0.000
    26 H      -7.456871    -3.218673     0.442104 H          1 UNL1 0.000
    27 H      -8.018419    -0.805161     0.390358 H          1 UNL1 0.000
    28 H      -2.286723     0.169803     2.567229 H          1 UNL1 0.000
    29 H       0.182102     0.180150     2.590693 H          1 UNL1 0.000
    30 H       0.225073     0.847509    -1.675391 H          1 UNL1 0.000
    31 H      -2.243748     0.866930    -1.699503 H          1 UNL1 0.000
    32 C       1.849300     0.521130     0.476160 C          1 UNL1 0.000
    33 C       2.557867     1.730788     0.381825 C          1 UNL1 0.000
    34 C       3.955374     1.746957     0.402441 C          1 UNL1 0.000
    35 C       4.653184     0.539339     0.518274 C          1 UNL1 0.000
    36 C       3.967704    -0.676938     0.611620 C          1 UNL1 0.000
    37 C       2.570035    -0.679413     0.590174 C          1 UNL1 0.000
    38 N       6.118073     0.550335     0.543192 N          1 UNL1 0.000
    39 O       6.692083    -0.456709     0.984993 O          1 UNL1 0.000
    40 O       6.692977     1.562928     0.122762 O          1 UNL1 0.000
    41 H       2.016442     2.672369     0.299367 H          1 UNL1 0.000
    42 H       4.478110     2.698576     0.333898 H          1 UNL1 0.000
    43 H       4.500745    -1.621693     0.696844 H          1 UNL1 0.000
    44 H       2.038600    -1.627786     0.657523 H          1 UNL1 0.000
@<TRIPOS>BOND
     1      1      2   2
     2      2      3   1
     3      3      4   2
     4      4      5   1
     5      5      6   2
     6      6      1   1
     7      4      7   1
     8      7      8   1
     9      8      9   2
    10      9     10   1
    11     10     11   2
    12     11     12   1
    13     12     13   2
    14     13      8   1
    15     13      5   1
    16     14     15   2
    17     15     16   1
    18     16     17   2
    19     17     18   1
    20     18     19   2
    21     19     14   1
    22      7     14   1
    23      1     20   1
    24      2     21   1
    25      3     22   1
    26      6     23   1
    27      9     24   1
    28     10     25   1
    29     11     26   1
    30     12     27   1
    31     15     28   1
    32     16     29   1
    33     18     30   1
    34     19     31   1
    35     32     33   2
    36     33     34   1
    37     34     35   2
    38     35     36   1
    39     36     37   2
    40     37     32   1
    41     38     39   2
    42     38     40   1
    43     35     38   1
    44     33     41   1
    45     34     42   1
    46     36     43   1
    47     37     44   1
    48     17     32   1
