# Produced with molli package
@<TRIPOS>MOLECULE
G_1_N
39 43 0 0 0
SMALL
USER_CHARGES

@<TRIPOS>ATOM
     1 C      -6.776702     3.597910     0.661464 C          1 UNL1 0.000
     2 C      -5.451486     4.009480     0.720913 C          1 UNL1 0.000
     3 C      -4.409678     3.079100     0.672825 C          1 UNL1 0.000
     4 C      -4.729492     1.709312     0.572614 C          1 UNL1 0.000
     5 C      -6.056061     1.281198     0.485797 C          1 UNL1 0.000
     6 C      -7.090590     2.241108     0.543568 C          1 UNL1 0.000
     7 N      -3.920810     0.580143     0.461718 N          1 UNL1 0.000
     8 C      -4.714878    -0.556474     0.323458 C          1 UNL1 0.000
     9 C      -4.379138    -1.923736     0.246686 C          1 UNL1 0.000
    10 C      -5.409274    -2.863021     0.149729 C          1 UNL1 0.000
    11 C      -6.739110    -2.461797     0.137393 C          1 UNL1 0.000
    12 C      -7.069520    -1.107193     0.234000 C          1 UNL1 0.000
    13 C      -6.047335    -0.138769     0.342828 C          1 UNL1 0.000
    14 C      -2.499403     0.586248     0.478311 C          1 UNL1 0.000
    15 C      -1.817078     1.253046     1.501345 C          1 UNL1 0.000
    16 C      -0.419985     1.249276     1.516920 C          1 UNL1 0.000
    17 C       0.299550     0.600329     0.504299 C          1 UNL1 0.000
    18 C      -0.393908    -0.060111    -0.518325 C          1 UNL1 0.000
    19 C      -1.790613    -0.075360    -0.530048 C          1 UNL1 0.000
    20 H      -7.575565     4.334435     0.693962 H          1 UNL1 0.000
    21 H      -5.218907     5.069461     0.794828 H          1 UNL1 0.000
    22 H      -3.379732     3.422292     0.690392 H          1 UNL1 0.000
    23 H      -8.129319     1.929397     0.482177 H          1 UNL1 0.000
    24 H      -3.346425    -2.257656     0.283256 H          1 UNL1 0.000
    25 H      -5.164713    -3.921287     0.093192 H          1 UNL1 0.000
    26 H      -7.529181    -3.204942     0.065519 H          1 UNL1 0.000
    27 H      -8.112619    -0.803810     0.240079 H          1 UNL1 0.000
    28 H      -2.354817     1.736669     2.313807 H          1 UNL1 0.000
    29 H       0.100864     1.739829     2.336496 H          1 UNL1 0.000
    30 H       0.147837    -0.550933    -1.323862 H          1 UNL1 0.000
    31 H      -2.307895    -0.565615    -1.352052 H          1 UNL1 0.000
    32 C       1.755766     0.594073     0.514426 C          1 UNL1 0.000
    33 C       2.487745     1.761197     0.621146 C          1 UNL1 0.000
    34 S       4.176439     1.480246     0.596681 S          1 UNL1 0.000
    35 C       3.948264    -0.206240     0.435438 C          1 UNL1 0.000
    36 C       2.613732    -0.545818     0.397281 C          1 UNL1 0.000
    37 H       2.119326     2.774864     0.704280 H          1 UNL1 0.000
    38 H       4.801835    -0.867313     0.375684 H          1 UNL1 0.000
    39 H       2.267580    -1.568040     0.302278 H          1 UNL1 0.000
@<TRIPOS>BOND
     1      1      2   2
     2      2      3   1
     3      3      4   2
     4      4      5   1
     5      5      6   2
     6      6      1   1
     7      4      7   1
     8      7      8   1
     9      8      9   2
    10      9     10   1
    11     10     11   2
    12     11     12   1
    13     12     13   2
    14     13      8   1
    15     13      5   1
    16     14     15   2
    17     15     16   1
    18     16     17   2
    19     17     18   1
    20     18     19   2
    21     19     14   1
    22      7     14   1
    23      1     20   1
    24      2     21   1
    25      3     22   1
    26      6     23   1
    27      9     24   1
    28     10     25   1
    29     11     26   1
    30     12     27   1
    31     15     28   1
    32     16     29   1
    33     18     30   1
    34     19     31   1
    35     32     33   2
    36     33     34   1
    37     34     35   1
    38     35     36   2
    39     36     32   1
    40     33     37   1
    41     35     38   1
    42     36     39   1
    43     17     32   1
