# Produced with molli package
@<TRIPOS>MOLECULE
G_2_O
41 45 0 0 0
SMALL
USER_CHARGES

@<TRIPOS>ATOM
     1 C      -4.607448     3.556644     1.829700 C          1 UNL1 0.000
     2 C      -3.282650     3.970682     1.737698 C          1 UNL1 0.000
     3 C      -2.243531     3.039177     1.664807 C          1 UNL1 0.000
     4 C      -2.574038     1.671500     1.687047 C          1 UNL1 0.000
     5 C      -3.895575     1.232771     1.787290 C          1 UNL1 0.000
     6 C      -4.926180     2.194894     1.855070 C          1 UNL1 0.000
     7 N      -1.771849     0.540462     1.635153 N          1 UNL1 0.000
     8 C      -2.546299    -0.605119     1.726323 C          1 UNL1 0.000
     9 C      -2.182610    -1.963778     1.719968 C          1 UNL1 0.000
    10 C      -3.198169    -2.919206     1.807094 C          1 UNL1 0.000
    11 C      -4.532352    -2.536387     1.898391 C          1 UNL1 0.000
    12 C      -4.884781    -1.182451     1.900566 C          1 UNL1 0.000
    13 C      -3.878160    -0.196927     1.809575 C          1 UNL1 0.000
    14 C      -0.358241     0.563151     1.609731 C          1 UNL1 0.000
    15 C       0.314209     0.517306     2.839091 C          1 UNL1 0.000
    16 C       1.705123     0.578361     2.859875 C          1 UNL1 0.000
    17 C       2.414469     0.681789     1.664209 C          1 UNL1 0.000
    18 C       1.734557     0.724837     0.441925 C          1 UNL1 0.000
    19 C       0.330814     0.668390     0.386881 C          1 UNL1 0.000
    20 H      -5.403105     4.295182     1.886955 H          1 UNL1 0.000
    21 H      -3.050686     5.033062     1.724630 H          1 UNL1 0.000
    22 H      -1.211018     3.368332     1.597265 H          1 UNL1 0.000
    23 H      -5.962925     1.880880     1.933474 H          1 UNL1 0.000
    24 H      -1.143375    -2.265797     1.626148 H          1 UNL1 0.000
    25 H      -2.938566    -3.975038     1.794633 H          1 UNL1 0.000
    26 H      -5.308987    -3.294037     1.962884 H          1 UNL1 0.000
    27 H      -5.929248    -0.893453     1.968614 H          1 UNL1 0.000
    28 H      -0.238445     0.441276     3.772925 H          1 UNL1 0.000
    29 H       2.236907     0.542837     3.807302 H          1 UNL1 0.000
    30 H       3.501059     0.719631     1.679769 H          1 UNL1 0.000
    31 H       2.310638     0.783440    -0.480078 H          1 UNL1 0.000
    32 C      -0.350496     0.690703    -0.910896 C          1 UNL1 0.000
    33 N      -0.881254    -0.489679    -1.310465 N          1 UNL1 0.000
    34 C      -1.539940    -0.507290    -2.488594 C          1 UNL1 0.000
    35 C      -1.679638     0.598660    -3.309170 C          1 UNL1 0.000
    36 C      -1.113554     1.798257    -2.895357 C          1 UNL1 0.000
    37 C      -0.438392     1.849265    -1.678754 C          1 UNL1 0.000
    38 H      -1.968085    -1.467132    -2.762592 H          1 UNL1 0.000
    39 H      -2.220298     0.526843    -4.245921 H          1 UNL1 0.000
    40 H      -1.204570     2.689216    -3.509534 H          1 UNL1 0.000
    41 H      -0.002502     2.779801    -1.331195 H          1 UNL1 0.000
@<TRIPOS>BOND
     1      1      2   2
     2      2      3   1
     3      3      4   2
     4      4      5   1
     5      5      6   2
     6      6      1   1
     7      4      7   1
     8      7      8   1
     9      8      9   2
    10      9     10   1
    11     10     11   2
    12     11     12   1
    13     12     13   2
    14     13      8   1
    15     13      5   1
    16     14     15   2
    17     15     16   1
    18     16     17   2
    19     17     18   1
    20     18     19   2
    21     19     14   1
    22      7     14   1
    23      1     20   1
    24      2     21   1
    25      3     22   1
    26      6     23   1
    27      9     24   1
    28     10     25   1
    29     11     26   1
    30     12     27   1
    31     15     28   1
    32     16     29   1
    33     17     30   1
    34     18     31   1
    35     32     33   2
    36     33     34   1
    37     34     35   2
    38     35     36   1
    39     36     37   2
    40     37     32   1
    41     34     38   1
    42     35     39   1
    43     36     40   1
    44     37     41   1
    45     19     32   1
