# Produced with molli package
@<TRIPOS>MOLECULE
G_2_N
39 43 0 0 0
SMALL
USER_CHARGES

@<TRIPOS>ATOM
     1 C      -4.497048     3.657012     1.756683 C          1 UNL1 0.000
     2 C      -3.157116     4.027672     1.806419 C          1 UNL1 0.000
     3 C      -2.145433     3.063775     1.800716 C          1 UNL1 0.000
     4 C      -2.520162     1.708861     1.746639 C          1 UNL1 0.000
     5 C      -3.858023     1.312861     1.699474 C          1 UNL1 0.000
     6 C      -4.859666     2.307105     1.702553 C          1 UNL1 0.000
     7 N      -1.753819     0.554692     1.712283 N          1 UNL1 0.000
     8 C      -2.567030    -0.567800     1.698431 C          1 UNL1 0.000
     9 C      -2.247358    -1.938152     1.703947 C          1 UNL1 0.000
    10 C      -3.295950    -2.860059     1.658530 C          1 UNL1 0.000
    11 C      -4.619159    -2.433858     1.613149 C          1 UNL1 0.000
    12 C      -4.927546    -1.069242     1.618469 C          1 UNL1 0.000
    13 C      -3.887074    -0.116666     1.665112 C          1 UNL1 0.000
    14 C      -0.342533     0.523091     1.733093 C          1 UNL1 0.000
    15 C       0.295397     0.531746     2.979649 C          1 UNL1 0.000
    16 C       1.687656     0.492678     3.033909 C          1 UNL1 0.000
    17 C       2.432739     0.447781     1.854326 C          1 UNL1 0.000
    18 C       1.789574     0.444746     0.612622 C          1 UNL1 0.000
    19 C       0.391511     0.480467     0.537215 C          1 UNL1 0.000
    20 H      -5.270721     4.420773     1.760213 H          1 UNL1 0.000
    21 H      -2.891670     5.081518     1.848186 H          1 UNL1 0.000
    22 H      -1.100909     3.359114     1.834067 H          1 UNL1 0.000
    23 H      -5.908555     2.027497     1.665628 H          1 UNL1 0.000
    24 H      -1.215929    -2.276443     1.735725 H          1 UNL1 0.000
    25 H      -3.072639    -3.924474     1.656127 H          1 UNL1 0.000
    26 H      -5.422352    -3.165531     1.575093 H          1 UNL1 0.000
    27 H      -5.964158    -0.746889     1.587698 H          1 UNL1 0.000
    28 H      -0.281478     0.565752     3.901250 H          1 UNL1 0.000
    29 H       2.194162     0.497074     3.996129 H          1 UNL1 0.000
    30 H       3.518888     0.417869     1.900025 H          1 UNL1 0.000
    31 H       2.387182     0.415687    -0.296381 H          1 UNL1 0.000
    32 C      -0.237452     0.506570    -0.773754 C          1 UNL1 0.000
    33 C      -0.660463    -0.650777    -1.395439 C          1 UNL1 0.000
    34 S      -1.375028    -0.342997    -2.920370 S          1 UNL1 0.000
    35 C      -1.111253     1.339883    -2.765923 C          1 UNL1 0.000
    36 C      -0.494663     1.660177    -1.576400 C          1 UNL1 0.000
    37 H      -0.599882    -1.666714    -1.029792 H          1 UNL1 0.000
    38 H      -1.424350     2.013054    -3.551851 H          1 UNL1 0.000
    39 H      -0.249205     2.675723    -1.290735 H          1 UNL1 0.000
@<TRIPOS>BOND
     1      1      2   2
     2      2      3   1
     3      3      4   2
     4      4      5   1
     5      5      6   2
     6      6      1   1
     7      4      7   1
     8      7      8   1
     9      8      9   2
    10      9     10   1
    11     10     11   2
    12     11     12   1
    13     12     13   2
    14     13      8   1
    15     13      5   1
    16     14     15   2
    17     15     16   1
    18     16     17   2
    19     17     18   1
    20     18     19   2
    21     19     14   1
    22      7     14   1
    23      1     20   1
    24      2     21   1
    25      3     22   1
    26      6     23   1
    27      9     24   1
    28     10     25   1
    29     11     26   1
    30     12     27   1
    31     15     28   1
    32     16     29   1
    33     17     30   1
    34     18     31   1
    35     32     33   2
    36     33     34   1
    37     34     35   1
    38     35     36   2
    39     36     32   1
    40     33     37   1
    41     35     38   1
    42     36     39   1
    43     19     32   1
