# Produced with molli package
@<TRIPOS>MOLECULE
G_2_R
43 47 0 0 0
SMALL
USER_CHARGES

@<TRIPOS>ATOM
     1 C      -4.592534     3.582383     1.619516 C          1 UNL1 0.000
     2 C      -3.254554     3.954576     1.543488 C          1 UNL1 0.000
     3 C      -2.241117     2.992482     1.550505 C          1 UNL1 0.000
     4 C      -2.610998     1.637188     1.638233 C          1 UNL1 0.000
     5 C      -3.946567     1.241438     1.728323 C          1 UNL1 0.000
     6 C      -4.950721     2.233314     1.710615 C          1 UNL1 0.000
     7 N      -1.840197     0.483585     1.681465 N          1 UNL1 0.000
     8 C      -2.649342    -0.632634     1.823296 C          1 UNL1 0.000
     9 C      -2.325901    -1.999218     1.903181 C          1 UNL1 0.000
    10 C      -3.371804    -2.920007     2.003781 C          1 UNL1 0.000
    11 C      -4.696380    -2.496042     2.026796 C          1 UNL1 0.000
    12 C      -5.008572    -1.134867     1.944986 C          1 UNL1 0.000
    13 C      -3.970979    -0.184297     1.834664 C          1 UNL1 0.000
    14 C      -0.425570     0.465948     1.664009 C          1 UNL1 0.000
    15 C       0.235983     0.361145     2.895734 C          1 UNL1 0.000
    16 C       1.626705     0.412447     2.930884 C          1 UNL1 0.000
    17 C       2.346970     0.562591     1.747064 C          1 UNL1 0.000
    18 C       1.678818     0.656698     0.520934 C          1 UNL1 0.000
    19 C       0.274790     0.609520     0.449397 C          1 UNL1 0.000
    20 H      -5.368047     4.344422     1.616372 H          1 UNL1 0.000
    21 H      -2.992212     5.008425     1.484129 H          1 UNL1 0.000
    22 H      -1.198281     3.290922     1.502470 H          1 UNL1 0.000
    23 H      -5.997895     1.952977     1.779109 H          1 UNL1 0.000
    24 H      -1.294089    -2.335865     1.861817 H          1 UNL1 0.000
    25 H      -3.144291    -3.982160     2.055083 H          1 UNL1 0.000
    26 H      -5.497132    -3.227358     2.101915 H          1 UNL1 0.000
    27 H      -6.046106    -0.814362     1.958684 H          1 UNL1 0.000
    28 H      -0.324885     0.257877     3.822221 H          1 UNL1 0.000
    29 H       2.149869     0.336842     3.880955 H          1 UNL1 0.000
    30 H       3.433731     0.593816     1.774739 H          1 UNL1 0.000
    31 H       2.269127     0.740933    -0.389985 H          1 UNL1 0.000
    32 C      -0.395725     0.648177    -0.856693 C          1 UNL1 0.000
    33 N      -1.106978    -0.462914    -1.177405 N          1 UNL1 0.000
    34 C      -1.761418    -0.480838    -2.363570 C          1 UNL1 0.000
    35 C      -1.709497     0.568356    -3.263572 C          1 UNL1 0.000
    36 C      -0.962663     1.702567    -2.942716 C          1 UNL1 0.000
    37 C      -0.297435     1.742115    -1.716507 C          1 UNL1 0.000
    38 N      -2.417209     0.469501    -4.528466 N          1 UNL1 0.000
    39 O      -2.093126     1.259056    -5.427537 O          1 UNL1 0.000
    40 O      -3.293750    -0.398347    -4.633904 O          1 UNL1 0.000
    41 H      -2.325171    -1.390735    -2.553284 H          1 UNL1 0.000
    42 H      -0.897400     2.550086    -3.620497 H          1 UNL1 0.000
    43 H       0.277544     2.618894    -1.434129 H          1 UNL1 0.000
@<TRIPOS>BOND
     1      1      2   2
     2      2      3   1
     3      3      4   2
     4      4      5   1
     5      5      6   2
     6      6      1   1
     7      4      7   1
     8      7      8   1
     9      8      9   2
    10      9     10   1
    11     10     11   2
    12     11     12   1
    13     12     13   2
    14     13      8   1
    15     13      5   1
    16     14     15   2
    17     15     16   1
    18     16     17   2
    19     17     18   1
    20     18     19   2
    21     19     14   1
    22      7     14   1
    23      1     20   1
    24      2     21   1
    25      3     22   1
    26      6     23   1
    27      9     24   1
    28     10     25   1
    29     11     26   1
    30     12     27   1
    31     15     28   1
    32     16     29   1
    33     17     30   1
    34     18     31   1
    35     32     33   2
    36     33     34   1
    37     34     35   2
    38     35     36   1
    39     36     37   2
    40     37     32   1
    41     38     39   2
    42     38     40   1
    43     35     38   1
    44     34     41   1
    45     36     42   1
    46     37     43   1
    47     19     32   1
