# Produced with molli package
@<TRIPOS>MOLECULE
G_2_K
44 48 0 0 0
SMALL
USER_CHARGES

@<TRIPOS>ATOM
     1 C      -4.547607     3.538511     1.728583 C          1 UNL1 0.000
     2 C      -3.216793     3.942951     1.719665 C          1 UNL1 0.000
     3 C      -2.182441     3.003853     1.715116 C          1 UNL1 0.000
     4 C      -2.524284     1.638902     1.718955 C          1 UNL1 0.000
     5 C      -3.851997     1.209626     1.741052 C          1 UNL1 0.000
     6 C      -4.877735     2.179098     1.740274 C          1 UNL1 0.000
     7 N      -1.729792     0.503031     1.703945 N          1 UNL1 0.000
     8 C      -2.513207    -0.638079     1.771883 C          1 UNL1 0.000
     9 C      -2.159061    -1.999086     1.811990 C          1 UNL1 0.000
    10 C      -3.185537    -2.946269     1.849457 C          1 UNL1 0.000
    11 C      -4.520006    -2.553583     1.846243 C          1 UNL1 0.000
    12 C      -4.862242    -1.197792     1.808868 C          1 UNL1 0.000
    13 C      -3.845113    -0.220165     1.771941 C          1 UNL1 0.000
    14 C      -0.318194     0.509643     1.644463 C          1 UNL1 0.000
    15 C       0.385526     0.440386     2.853736 C          1 UNL1 0.000
    16 C       1.777621     0.465345     2.834385 C          1 UNL1 0.000
    17 C       2.455646     0.556453     1.619237 C          1 UNL1 0.000
    18 C       1.744275     0.618262     0.416187 C          1 UNL1 0.000
    19 C       0.340287     0.593783     0.402091 C          1 UNL1 0.000
    20 H      -5.339742     4.283290     1.731899 H          1 UNL1 0.000
    21 H      -2.976737     5.003789     1.717745 H          1 UNL1 0.000
    22 H      -1.145100     3.325302     1.710606 H          1 UNL1 0.000
    23 H      -5.920096     1.873981     1.754990 H          1 UNL1 0.000
    24 H      -1.119076    -2.311907     1.810229 H          1 UNL1 0.000
    25 H      -2.936457    -4.004595     1.880047 H          1 UNL1 0.000
    26 H      -5.305611    -3.304723     1.874373 H          1 UNL1 0.000
    27 H      -5.907265    -0.901507     1.809674 H          1 UNL1 0.000
    28 H      -0.141391     0.375411     3.803204 H          1 UNL1 0.000
    29 H       2.335823     0.416001     3.766134 H          1 UNL1 0.000
    30 H       3.542959     0.575657     1.605270 H          1 UNL1 0.000
    31 H       2.296743     0.679312    -0.520106 H          1 UNL1 0.000
    32 C      -0.370261     0.623958    -0.883237 C          1 UNL1 0.000
    33 C      -0.692654     1.844217    -1.498570 C          1 UNL1 0.000
    34 C      -1.378958     1.873436    -2.716017 C          1 UNL1 0.000
    35 C      -1.743706     0.669064    -3.329017 C          1 UNL1 0.000
    36 C      -1.427242    -0.557879    -2.735569 C          1 UNL1 0.000
    37 C      -0.741273    -0.573422    -1.518243 C          1 UNL1 0.000
    38 N      -2.458548     0.693194    -4.608926 N          1 UNL1 0.000
    39 O      -2.487962     1.764341    -5.231765 O          1 UNL1 0.000
    40 O      -2.983229    -0.360838    -4.996467 O          1 UNL1 0.000
    41 H      -0.419578     2.783767    -1.021331 H          1 UNL1 0.000
    42 H      -1.625338     2.833704    -3.163738 H          1 UNL1 0.000
    43 H      -1.705207    -1.501160    -3.200591 H          1 UNL1 0.000
    44 H      -0.502031    -1.530551    -1.057315 H          1 UNL1 0.000
@<TRIPOS>BOND
     1      1      2   2
     2      2      3   1
     3      3      4   2
     4      4      5   1
     5      5      6   2
     6      6      1   1
     7      4      7   1
     8      7      8   1
     9      8      9   2
    10      9     10   1
    11     10     11   2
    12     11     12   1
    13     12     13   2
    14     13      8   1
    15     13      5   1
    16     14     15   2
    17     15     16   1
    18     16     17   2
    19     17     18   1
    20     18     19   2
    21     19     14   1
    22      7     14   1
    23      1     20   1
    24      2     21   1
    25      3     22   1
    26      6     23   1
    27      9     24   1
    28     10     25   1
    29     11     26   1
    30     12     27   1
    31     15     28   1
    32     16     29   1
    33     17     30   1
    34     18     31   1
    35     32     33   2
    36     33     34   1
    37     34     35   2
    38     35     36   1
    39     36     37   2
    40     37     32   1
    41     38     39   2
    42     38     40   1
    43     35     38   1
    44     33     41   1
    45     34     42   1
    46     36     43   1
    47     37     44   1
    48     19     32   1
