# Produced with molli package
@<TRIPOS>MOLECULE
G_2_T
45 49 0 0 0
SMALL
USER_CHARGES

@<TRIPOS>ATOM
     1 C      -4.573565     3.457981     2.011758 C          1 UNL1 0.000
     2 C      -3.251571     3.890479     2.017240 C          1 UNL1 0.000
     3 C      -2.197789     2.975718     1.949481 C          1 UNL1 0.000
     4 C      -2.511320     1.606168     1.871862 C          1 UNL1 0.000
     5 C      -3.829632     1.148328     1.870082 C          1 UNL1 0.000
     6 C      -4.875304     2.093701     1.941642 C          1 UNL1 0.000
     7 N      -1.693742     0.492185     1.760674 N          1 UNL1 0.000
     8 C      -2.453607    -0.667326     1.746540 C          1 UNL1 0.000
     9 C      -2.071135    -2.020171     1.691548 C          1 UNL1 0.000
    10 C      -3.076529    -2.990395     1.684253 C          1 UNL1 0.000
    11 C      -4.418718    -2.627630     1.728652 C          1 UNL1 0.000
    12 C      -4.789308    -1.279889     1.785772 C          1 UNL1 0.000
    13 C      -3.793487    -0.279730     1.799997 C          1 UNL1 0.000
    14 C      -0.281710     0.530629     1.718263 C          1 UNL1 0.000
    15 C       0.404741     0.576224     2.939152 C          1 UNL1 0.000
    16 C       1.797028     0.594105     2.938752 C          1 UNL1 0.000
    17 C       2.492689     0.569296     1.730585 C          1 UNL1 0.000
    18 C       1.798374     0.527832     0.516498 C          1 UNL1 0.000
    19 C       0.394336     0.508610     0.482882 C          1 UNL1 0.000
    20 H      -5.380954     4.184185     2.062344 H          1 UNL1 0.000
    21 H      -3.033145     4.954509     2.071059 H          1 UNL1 0.000
    22 H      -1.167398     3.318705     1.945566 H          1 UNL1 0.000
    23 H      -5.910523     1.765633     1.940124 H          1 UNL1 0.000
    24 H      -1.024749    -2.308301     1.654500 H          1 UNL1 0.000
    25 H      -2.804098    -4.042343     1.642213 H          1 UNL1 0.000
    26 H      -5.187637    -3.396018     1.720965 H          1 UNL1 0.000
    27 H      -5.839772    -1.006806     1.824067 H          1 UNL1 0.000
    28 H      -0.136579     0.588983     3.882506 H          1 UNL1 0.000
    29 H       2.341117     0.625287     3.879390 H          1 UNL1 0.000
    30 H       3.579950     0.585056     1.730138 H          1 UNL1 0.000
    31 H       2.362477     0.518048    -0.414818 H          1 UNL1 0.000
    32 C      -0.298298     0.488440    -0.812512 C          1 UNL1 0.000
    33 C      -0.820261     1.667025    -1.364450 C          1 UNL1 0.000
    34 C      -1.497814     1.648762    -2.586465 C          1 UNL1 0.000
    35 C      -1.657526     0.450667    -3.288615 C          1 UNL1 0.000
    36 C      -1.134769    -0.728563    -2.746430 C          1 UNL1 0.000
    37 C      -0.458760    -0.708540    -1.523119 C          1 UNL1 0.000
    38 C      -2.406531     0.412698    -4.587142 C          1 UNL1 0.000
    39 H      -0.712320     2.611637    -0.835969 H          1 UNL1 0.000
    40 H      -1.904890     2.577732    -2.978595 H          1 UNL1 0.000
    41 H      -1.258948    -1.673996    -3.269309 H          1 UNL1 0.000
    42 H      -0.070697    -1.639914    -1.117114 H          1 UNL1 0.000
    43 H      -3.349625    -0.128342    -4.460731 H          1 UNL1 0.000
    44 H      -1.806750    -0.083338    -5.357080 H          1 UNL1 0.000
    45 H      -2.637681     1.421013    -4.946292 H          1 UNL1 0.000
@<TRIPOS>BOND
     1      1      2   2
     2      2      3   1
     3      3      4   2
     4      4      5   1
     5      5      6   2
     6      6      1   1
     7      4      7   1
     8      7      8   1
     9      8      9   2
    10      9     10   1
    11     10     11   2
    12     11     12   1
    13     12     13   2
    14     13      8   1
    15     13      5   1
    16     14     15   2
    17     15     16   1
    18     16     17   2
    19     17     18   1
    20     18     19   2
    21     19     14   1
    22      7     14   1
    23      1     20   1
    24      2     21   1
    25      3     22   1
    26      6     23   1
    27      9     24   1
    28     10     25   1
    29     11     26   1
    30     12     27   1
    31     15     28   1
    32     16     29   1
    33     17     30   1
    34     18     31   1
    35     32     33   2
    36     33     34   1
    37     34     35   2
    38     35     36   1
    39     36     37   2
    40     37     32   1
    41     35     38   1
    42     33     39   1
    43     34     40   1
    44     36     41   1
    45     37     42   1
    46     38     43   1
    47     38     44   1
    48     38     45   1
    49     19     32   1
