# Produced with molli package
@<TRIPOS>MOLECULE
G_2_Q
40 44 0 0 0
SMALL
USER_CHARGES

@<TRIPOS>ATOM
     1 C      -4.652717     3.583125     1.848804 C          1 UNL1 0.000
     2 C      -3.326345     3.999052     1.796545 C          1 UNL1 0.000
     3 C      -2.284827     3.069127     1.750265 C          1 UNL1 0.000
     4 C      -2.614331     1.701855     1.759345 C          1 UNL1 0.000
     5 C      -3.937245     1.260520     1.809336 C          1 UNL1 0.000
     6 C      -4.970737     2.220755     1.855336 C          1 UNL1 0.000
     7 N      -1.809723     0.575218     1.708736 N          1 UNL1 0.000
     8 C      -2.582341    -0.575149     1.753101 C          1 UNL1 0.000
     9 C      -2.216741    -1.934016     1.751997 C          1 UNL1 0.000
    10 C      -3.234735    -2.890539     1.794859 C          1 UNL1 0.000
    11 C      -4.571717    -2.509581     1.840815 C          1 UNL1 0.000
    12 C      -4.925232    -1.156351     1.847754 C          1 UNL1 0.000
    13 C      -3.917161    -0.169385     1.804936 C          1 UNL1 0.000
    14 C      -0.396987     0.593471     1.679362 C          1 UNL1 0.000
    15 C       0.279376     0.629511     2.906264 C          1 UNL1 0.000
    16 C       1.671662     0.651746     2.917506 C          1 UNL1 0.000
    17 C       2.377708     0.640879     1.715291 C          1 UNL1 0.000
    18 C       1.693475     0.603982     0.495517 C          1 UNL1 0.000
    19 C       0.289022     0.575549     0.450646 C          1 UNL1 0.000
    20 H      -5.449929     4.321326     1.881202 H          1 UNL1 0.000
    21 H      -3.093413     5.061166     1.784905 H          1 UNL1 0.000
    22 H      -1.251103     3.398154     1.691862 H          1 UNL1 0.000
    23 H      -6.009430     1.906005     1.894046 H          1 UNL1 0.000
    24 H      -1.175389    -2.239537     1.720134 H          1 UNL1 0.000
    25 H      -2.977004    -3.947263     1.792214 H          1 UNL1 0.000
    26 H      -5.350253    -3.267792     1.873439 H          1 UNL1 0.000
    27 H      -5.971736    -0.868640     1.887780 H          1 UNL1 0.000
    28 H      -0.269681     0.644270     3.845319 H          1 UNL1 0.000
    29 H       2.207671     0.685371     3.862855 H          1 UNL1 0.000
    30 H       3.464818     0.670568     1.724414 H          1 UNL1 0.000
    31 H       2.266476     0.614854    -0.430622 H          1 UNL1 0.000
    32 C      -0.394390     0.547777    -0.842119 C          1 UNL1 0.000
    33 N      -0.821228     1.743557    -1.319185 N          1 UNL1 0.000
    34 C      -1.463469     1.705752    -2.508919 C          1 UNL1 0.000
    35 C      -1.653643     0.530504    -3.216076 C          1 UNL1 0.000
    36 N      -1.214073    -0.665267    -2.765571 N          1 UNL1 0.000
    37 C      -0.590255    -0.628905    -1.561983 C          1 UNL1 0.000
    38 H      -1.824685     2.656827    -2.882686 H          1 UNL1 0.000
    39 H      -2.167822     0.520408    -4.170164 H          1 UNL1 0.000
    40 H      -0.248567    -1.586934    -1.185384 H          1 UNL1 0.000
@<TRIPOS>BOND
     1      1      2   2
     2      2      3   1
     3      3      4   2
     4      4      5   1
     5      5      6   2
     6      6      1   1
     7      4      7   1
     8      7      8   1
     9      8      9   2
    10      9     10   1
    11     10     11   2
    12     11     12   1
    13     12     13   2
    14     13      8   1
    15     13      5   1
    16     14     15   2
    17     15     16   1
    18     16     17   2
    19     17     18   1
    20     18     19   2
    21     19     14   1
    22      7     14   1
    23      1     20   1
    24      2     21   1
    25      3     22   1
    26      6     23   1
    27      9     24   1
    28     10     25   1
    29     11     26   1
    30     12     27   1
    31     15     28   1
    32     16     29   1
    33     17     30   1
    34     18     31   1
    35     32     33   2
    36     33     34   1
    37     34     35   2
    38     35     36   1
    39     36     37   2
    40     37     32   1
    41     34     38   1
    42     35     39   1
    43     37     40   1
    44     19     32   1
