# Produced with molli package
@<TRIPOS>MOLECULE
G_2_S
47 51 0 0 0
SMALL
USER_CHARGES

@<TRIPOS>ATOM
     1 C      -4.604726     3.616432     1.784304 C          1 UNL1 0.000
     2 C      -3.279358     4.037165     1.818395 C          1 UNL1 0.000
     3 C      -2.228660     3.112876     1.827271 C          1 UNL1 0.000
     4 C      -2.547886     1.742702     1.793843 C          1 UNL1 0.000
     5 C      -3.872572     1.301291     1.757455 C          1 UNL1 0.000
     6 C      -4.913135     2.254463     1.756527 C          1 UNL1 0.000
     7 N      -1.740688     0.613285     1.754451 N          1 UNL1 0.000
     8 C      -2.522482    -0.535145     1.749955 C          1 UNL1 0.000
     9 C      -2.168278    -1.897169     1.760396 C          1 UNL1 0.000
    10 C      -3.194257    -2.847384     1.732319 C          1 UNL1 0.000
    11 C      -4.529261    -2.458870     1.693894 C          1 UNL1 0.000
    12 C      -4.872139    -1.104341     1.694327 C          1 UNL1 0.000
    13 C      -3.856235    -0.125524     1.729826 C          1 UNL1 0.000
    14 C      -0.323715     0.619981     1.722244 C          1 UNL1 0.000
    15 C       0.360662     0.687782     2.942653 C          1 UNL1 0.000
    16 C       1.753701     0.622382     2.951006 C          1 UNL1 0.000
    17 C       2.455048     0.489127     1.753162 C          1 UNL1 0.000
    18 C       1.766309     0.429539     0.538750 C          1 UNL1 0.000
    19 C       0.363431     0.497452     0.496637 C          1 UNL1 0.000
    20 H      -5.408912     4.348131     1.775799 H          1 UNL1 0.000
    21 H      -3.057291     5.101816     1.833346 H          1 UNL1 0.000
    22 H      -1.197393     3.452107     1.845207 H          1 UNL1 0.000
    23 H      -5.950170     1.932046     1.728894 H          1 UNL1 0.000
    24 H      -1.128655    -2.208845     1.791231 H          1 UNL1 0.000
    25 H      -2.944516    -3.905775     1.740687 H          1 UNL1 0.000
    26 H      -5.314533    -3.210265     1.667903 H          1 UNL1 0.000
    27 H      -5.916780    -0.807294     1.670692 H          1 UNL1 0.000
    28 H      -0.180283     0.774218     3.882145 H          1 UNL1 0.000
    29 H       2.295774     0.667907     3.892475 H          1 UNL1 0.000
    30 H       3.541306     0.435036     1.760737 H          1 UNL1 0.000
    31 H       2.334032     0.337309    -0.386015 H          1 UNL1 0.000
    32 C      -0.316924     0.467768    -0.802798 C          1 UNL1 0.000
    33 C      -0.819607     1.645117    -1.369567 C          1 UNL1 0.000
    34 C      -1.511317     1.613907    -2.582265 C          1 UNL1 0.000
    35 C      -1.707098     0.404893    -3.263969 C          1 UNL1 0.000
    36 C      -1.175072    -0.768768    -2.720028 C          1 UNL1 0.000
    37 C      -0.486008    -0.734544    -1.500937 C          1 UNL1 0.000
    38 C      -2.495074     0.449177    -4.534909 C          1 UNL1 0.000
    39 C      -2.665462    -0.779929    -5.390278 C          1 UNL1 0.000
    40 O      -2.996795     1.514530    -4.895129 O          1 UNL1 0.000
    41 H      -0.691251     2.598127    -0.860188 H          1 UNL1 0.000
    42 H      -1.907971     2.544903    -2.984234 H          1 UNL1 0.000
    43 H      -1.287520    -1.734763    -3.197890 H          1 UNL1 0.000
    44 H      -0.098567    -1.662799    -1.084476 H          1 UNL1 0.000
    45 H      -3.730681    -0.908086    -5.605086 H          1 UNL1 0.000
    46 H      -2.316413    -1.700570    -4.928880 H          1 UNL1 0.000
    47 H      -2.118369    -0.632914    -6.325574 H          1 UNL1 0.000
@<TRIPOS>BOND
     1      1      2   2
     2      2      3   1
     3      3      4   2
     4      4      5   1
     5      5      6   2
     6      6      1   1
     7      4      7   1
     8      7      8   1
     9      8      9   2
    10      9     10   1
    11     10     11   2
    12     11     12   1
    13     12     13   2
    14     13      8   1
    15     13      5   1
    16     14     15   2
    17     15     16   1
    18     16     17   2
    19     17     18   1
    20     18     19   2
    21     19     14   1
    22      7     14   1
    23      1     20   1
    24      2     21   1
    25      3     22   1
    26      6     23   1
    27      9     24   1
    28     10     25   1
    29     11     26   1
    30     12     27   1
    31     15     28   1
    32     16     29   1
    33     17     30   1
    34     18     31   1
    35     32     33   2
    36     33     34   1
    37     34     35   2
    38     35     36   1
    39     36     37   2
    40     37     32   1
    41     35     38   1
    42     38     39   1
    43     38     40   2
    44     33     41   1
    45     34     42   1
    46     36     43   1
    47     37     44   1
    48     39     45   1
    49     39     46   1
    50     39     47   1
    51     19     32   1
