# Produced with molli package
@<TRIPOS>MOLECULE
G_2_P
46 50 0 0 0
SMALL
USER_CHARGES

@<TRIPOS>ATOM
     1 C      -4.653856     3.533905     1.877781 C          1 UNL1 0.000
     2 C      -3.323886     3.939658     1.844647 C          1 UNL1 0.000
     3 C      -2.288526     3.001751     1.821972 C          1 UNL1 0.000
     4 C      -2.629045     1.636351     1.831997 C          1 UNL1 0.000
     5 C      -3.955626     1.205621     1.873289 C          1 UNL1 0.000
     6 C      -4.982416     2.174078     1.893518 C          1 UNL1 0.000
     7 N      -1.833721     0.501498     1.799489 N          1 UNL1 0.000
     8 C      -2.615265    -0.640941     1.871320 C          1 UNL1 0.000
     9 C      -2.259105    -2.001482     1.903771 C          1 UNL1 0.000
    10 C      -3.283230    -2.950231     1.958864 C          1 UNL1 0.000
    11 C      -4.618063    -2.559061     1.981700 C          1 UNL1 0.000
    12 C      -4.962276    -1.203524     1.952781 C          1 UNL1 0.000
    13 C      -3.947413    -0.224391     1.898468 C          1 UNL1 0.000
    14 C      -0.421399     0.510171     1.767523 C          1 UNL1 0.000
    15 C       0.256468     0.513646     2.994147 C          1 UNL1 0.000
    16 C       1.648780     0.524527     3.004793 C          1 UNL1 0.000
    17 C       2.353315     0.533413     1.801759 C          1 UNL1 0.000
    18 C       1.667635     0.527431     0.582279 C          1 UNL1 0.000
    19 C       0.263633     0.513179     0.537872 C          1 UNL1 0.000
    20 H      -5.446733     4.277540     1.893468 H          1 UNL1 0.000
    21 H      -3.084759     5.000558     1.834739 H          1 UNL1 0.000
    22 H      -1.251863     3.323467     1.793311 H          1 UNL1 0.000
    23 H      -6.023633     1.867161     1.923587 H          1 UNL1 0.000
    24 H      -1.218716    -2.312142     1.881267 H          1 UNL1 0.000
    25 H      -3.031880    -4.007990     1.981483 H          1 UNL1 0.000
    26 H      -5.401943    -3.311114     2.022586 H          1 UNL1 0.000
    27 H      -6.007268    -0.908030     1.973448 H          1 UNL1 0.000
    28 H      -0.291969     0.507316     3.933538 H          1 UNL1 0.000
    29 H       2.185757     0.525710     3.950024 H          1 UNL1 0.000
    30 H       3.440629     0.541758     1.809744 H          1 UNL1 0.000
    31 H       2.238980     0.529386    -0.344660 H          1 UNL1 0.000
    32 C      -0.414897     0.482225    -0.764084 C          1 UNL1 0.000
    33 C      -0.784584     1.670203    -1.413972 C          1 UNL1 0.000
    34 C      -1.423527     1.635456    -2.656420 C          1 UNL1 0.000
    35 C      -1.681393     0.409333    -3.264930 C          1 UNL1 0.000
    36 C      -1.348315    -0.779693    -2.624049 C          1 UNL1 0.000
    37 C      -0.706809    -0.742644    -1.384692 C          1 UNL1 0.000
    38 O      -2.325484     0.326187    -4.468996 O          1 UNL1 0.000
    39 C      -1.506685     0.835418    -5.521021 C          1 UNL1 0.000
    40 H      -0.588950     2.632231    -0.945651 H          1 UNL1 0.000
    41 H      -1.731018     2.562589    -3.129960 H          1 UNL1 0.000
    42 H      -1.583498    -1.732727    -3.088315 H          1 UNL1 0.000
    43 H      -0.444163    -1.678560    -0.896783 H          1 UNL1 0.000
    44 H      -1.985443     0.578695    -6.470833 H          1 UNL1 0.000
    45 H      -0.511474     0.375896    -5.510410 H          1 UNL1 0.000
    46 H      -1.426158     1.925858    -5.467964 H          1 UNL1 0.000
@<TRIPOS>BOND
     1      1      2   2
     2      2      3   1
     3      3      4   2
     4      4      5   1
     5      5      6   2
     6      6      1   1
     7      4      7   1
     8      7      8   1
     9      8      9   2
    10      9     10   1
    11     10     11   2
    12     11     12   1
    13     12     13   2
    14     13      8   1
    15     13      5   1
    16     14     15   2
    17     15     16   1
    18     16     17   2
    19     17     18   1
    20     18     19   2
    21     19     14   1
    22      7     14   1
    23      1     20   1
    24      2     21   1
    25      3     22   1
    26      6     23   1
    27      9     24   1
    28     10     25   1
    29     11     26   1
    30     12     27   1
    31     15     28   1
    32     16     29   1
    33     17     30   1
    34     18     31   1
    35     32     33   2
    36     33     34   1
    37     34     35   2
    38     35     36   1
    39     36     37   2
    40     37     32   1
    41     38     39   1
    42     35     38   1
    43     33     40   1
    44     34     41   1
    45     36     42   1
    46     37     43   1
    47     39     44   1
    48     39     45   1
    49     39     46   1
    50     19     32   1
