# Produced with molli package
@<TRIPOS>MOLECULE
G_2_L
46 51 0 0 0
SMALL
USER_CHARGES

@<TRIPOS>ATOM
     1 C      -4.628389     3.618838     1.898598 C          1 UNL1 0.000
     2 C      -3.298252     4.023943     1.938591 C          1 UNL1 0.000
     3 C      -2.262115     3.087444     1.901125 C          1 UNL1 0.000
     4 C      -2.601569     1.724456     1.818655 C          1 UNL1 0.000
     5 C      -3.928864     1.294108     1.780743 C          1 UNL1 0.000
     6 C      -4.956166     2.260992     1.823005 C          1 UNL1 0.000
     7 N      -1.804884     0.593609     1.725734 N          1 UNL1 0.000
     8 C      -2.588670    -0.549596     1.690388 C          1 UNL1 0.000
     9 C      -2.233401    -1.910419     1.646645 C          1 UNL1 0.000
    10 C      -3.258123    -2.859511     1.613757 C          1 UNL1 0.000
    11 C      -4.592980    -2.468827     1.623341 C          1 UNL1 0.000
    12 C      -4.936737    -1.113562     1.670943 C          1 UNL1 0.000
    13 C      -3.920855    -0.134333     1.711080 C          1 UNL1 0.000
    14 C      -0.391431     0.601516     1.711538 C          1 UNL1 0.000
    15 C       0.271550     0.690662     2.942934 C          1 UNL1 0.000
    16 C       1.663454     0.664392     2.971835 C          1 UNL1 0.000
    17 C       2.382133     0.553341     1.782075 C          1 UNL1 0.000
    18 C       1.711603     0.473408     0.556626 C          1 UNL1 0.000
    19 C       0.308682     0.498893     0.493342 C          1 UNL1 0.000
    20 H      -5.421701     4.361577     1.925586 H          1 UNL1 0.000
    21 H      -3.059443     5.083398     1.995301 H          1 UNL1 0.000
    22 H      -1.225106     3.409376     1.922142 H          1 UNL1 0.000
    23 H      -5.997488     1.954019     1.793233 H          1 UNL1 0.000
    24 H      -1.192821    -2.220666     1.636721 H          1 UNL1 0.000
    25 H      -3.006383    -3.916827     1.578093 H          1 UNL1 0.000
    26 H      -5.377108    -3.221141     1.594891 H          1 UNL1 0.000
    27 H      -5.981860    -0.818896     1.681741 H          1 UNL1 0.000
    28 H      -0.287769     0.765743     3.872780 H          1 UNL1 0.000
    29 H       2.189290     0.726105     3.921298 H          1 UNL1 0.000
    30 H       3.469093     0.533489     1.804589 H          1 UNL1 0.000
    31 H       2.293852     0.401514    -0.360727 H          1 UNL1 0.000
    32 C      -0.358354     0.459999    -0.816503 C          1 UNL1 0.000
    33 C      -0.859456     1.637587    -1.391076 C          1 UNL1 0.000
    34 C      -1.517240     1.637605    -2.626059 C          1 UNL1 0.000
    35 C      -1.656640     0.410795    -3.280073 C          1 UNL1 0.000
    36 C      -1.166601    -0.783078    -2.753164 C          1 UNL1 0.000
    37 C      -0.505855    -0.755774    -1.508623 C          1 UNL1 0.000
    38 N      -2.257365     0.107869    -4.480993 N          1 UNL1 0.000
    39 C      -2.159896    -1.234828    -4.733544 C          1 UNL1 0.000
    40 C      -1.489667    -1.812879    -3.679614 C          1 UNL1 0.000
    41 H      -0.747475     2.584050    -0.864563 H          1 UNL1 0.000
    42 H      -1.908279     2.557765    -3.046787 H          1 UNL1 0.000
    43 H      -0.128978    -1.680386    -1.080793 H          1 UNL1 0.000
    44 H      -2.707977     0.784129    -5.081312 H          1 UNL1 0.000
    45 H      -2.578542    -1.661434    -5.634832 H          1 UNL1 0.000
    46 H      -1.259049    -2.865052    -3.579257 H          1 UNL1 0.000
@<TRIPOS>BOND
     1      1      2   2
     2      2      3   1
     3      3      4   2
     4      4      5   1
     5      5      6   2
     6      6      1   1
     7      4      7   1
     8      7      8   1
     9      8      9   2
    10      9     10   1
    11     10     11   2
    12     11     12   1
    13     12     13   2
    14     13      8   1
    15     13      5   1
    16     14     15   2
    17     15     16   1
    18     16     17   2
    19     17     18   1
    20     18     19   2
    21     19     14   1
    22      7     14   1
    23      1     20   1
    24      2     21   1
    25      3     22   1
    26      6     23   1
    27      9     24   1
    28     10     25   1
    29     11     26   1
    30     12     27   1
    31     15     28   1
    32     16     29   1
    33     17     30   1
    34     18     31   1
    35     32     33   2
    36     33     34   1
    37     34     35   2
    38     35     36   1
    39     36     37   2
    40     37     32   1
    41     35     38   1
    42     38     39   1
    43     39     40   2
    44     40     36   1
    45     33     41   1
    46     34     42   1
    47     37     43   1
    48     38     44   1
    49     39     45   1
    50     40     46   1
    51     19     32   1
