# Produced with molli package
@<TRIPOS>MOLECULE
G_2_M
43 47 0 0 0
SMALL
USER_CHARGES

@<TRIPOS>ATOM
     1 C      -4.596632     3.511593     1.844282 C          1 UNL1 0.000
     2 C      -3.266471     3.917428     1.874016 C          1 UNL1 0.000
     3 C      -2.230930     2.979607     1.881809 C          1 UNL1 0.000
     4 C      -2.571144     1.614556     1.856910 C          1 UNL1 0.000
     5 C      -3.898579     1.183553     1.843092 C          1 UNL1 0.000
     6 C      -4.925273     2.151858     1.831625 C          1 UNL1 0.000
     7 N      -1.775654     0.479913     1.826273 N          1 UNL1 0.000
     8 C      -2.558511    -0.662833     1.870137 C          1 UNL1 0.000
     9 C      -2.202839    -2.023537     1.907113 C          1 UNL1 0.000
    10 C      -3.228313    -2.972300     1.929481 C          1 UNL1 0.000
    11 C      -4.563205    -2.581420     1.910156 C          1 UNL1 0.000
    12 C      -4.906862    -1.225865     1.873750 C          1 UNL1 0.000
    13 C      -3.890707    -0.246554     1.858355 C          1 UNL1 0.000
    14 C      -0.363958     0.486529     1.775249 C          1 UNL1 0.000
    15 C       0.332311     0.474065     2.991027 C          1 UNL1 0.000
    16 C       1.724842     0.467780     2.979388 C          1 UNL1 0.000
    17 C       2.410945     0.472746     1.765601 C          1 UNL1 0.000
    18 C       1.706903     0.482781     0.556940 C          1 UNL1 0.000
    19 C       0.302428     0.489313     0.534360 C          1 UNL1 0.000
    20 H      -5.389618     4.255386     1.835582 H          1 UNL1 0.000
    21 H      -3.027850     4.978447     1.890354 H          1 UNL1 0.000
    22 H      -1.193997     3.301875     1.902395 H          1 UNL1 0.000
    23 H      -5.967184     1.845304     1.816206 H          1 UNL1 0.000
    24 H      -1.162355    -2.334350     1.919806 H          1 UNL1 0.000
    25 H      -2.977928    -4.030219     1.961952 H          1 UNL1 0.000
    26 H      -5.347981    -3.333728     1.926541 H          1 UNL1 0.000
    27 H      -5.952176    -0.930943     1.863705 H          1 UNL1 0.000
    28 H      -0.200704     0.467434     3.939248 H          1 UNL1 0.000
    29 H       2.277158     0.457688     3.915834 H          1 UNL1 0.000
    30 H       3.498405     0.467486     1.756787 H          1 UNL1 0.000
    31 H       2.265044     0.485515    -0.378076 H          1 UNL1 0.000
    32 C      -0.395637     0.489150    -0.758299 C          1 UNL1 0.000
    33 C      -0.844574     1.687311    -1.333807 C          1 UNL1 0.000
    34 C      -1.503639     1.687109    -2.566806 C          1 UNL1 0.000
    35 C      -1.716362     0.485275    -3.247011 C          1 UNL1 0.000
    36 C      -1.271649    -0.714939    -2.685809 C          1 UNL1 0.000
    37 C      -0.616377    -0.711171    -1.450527 C          1 UNL1 0.000
    38 C      -2.380015     0.484622    -4.517608 C          1 UNL1 0.000
    39 N      -2.908878     0.484958    -5.551028 N          1 UNL1 0.000
    40 H      -0.687255     2.632857    -0.818378 H          1 UNL1 0.000
    41 H      -1.847969     2.630128    -2.986995 H          1 UNL1 0.000
    42 H      -1.432068    -1.659797    -3.201405 H          1 UNL1 0.000
    43 H      -0.281659    -1.655182    -1.024171 H          1 UNL1 0.000
@<TRIPOS>BOND
     1      1      2   2
     2      2      3   1
     3      3      4   2
     4      4      5   1
     5      5      6   2
     6      6      1   1
     7      4      7   1
     8      7      8   1
     9      8      9   2
    10      9     10   1
    11     10     11   2
    12     11     12   1
    13     12     13   2
    14     13      8   1
    15     13      5   1
    16     14     15   2
    17     15     16   1
    18     16     17   2
    19     17     18   1
    20     18     19   2
    21     19     14   1
    22      7     14   1
    23      1     20   1
    24      2     21   1
    25      3     22   1
    26      6     23   1
    27      9     24   1
    28     10     25   1
    29     11     26   1
    30     12     27   1
    31     15     28   1
    32     16     29   1
    33     17     30   1
    34     18     31   1
    35     32     33   2
    36     33     34   1
    37     34     35   2
    38     35     36   1
    39     36     37   2
    40     37     32   1
    41     38     39   3
    42     35     38   1
    43     33     40   1
    44     34     41   1
    45     36     42   1
    46     37     43   1
    47     19     32   1
