# Produced with molli package
@<TRIPOS>MOLECULE
G_3_N
51 57 0 0 0
SMALL
USER_CHARGES

@<TRIPOS>ATOM
     1 C      -6.729167     3.548723     0.595944 C          1 UNL1 0.000
     2 C      -5.392178     3.932576     0.608204 C          1 UNL1 0.000
     3 C      -4.372189     2.978145     0.613341 C          1 UNL1 0.000
     4 C      -4.735887     1.619435     0.606093 C          1 UNL1 0.000
     5 C      -6.069722     1.209661     0.594754 C          1 UNL1 0.000
     6 C      -7.080519     2.194553     0.589582 C          1 UNL1 0.000
     7 N      -3.956220     0.472068     0.602039 N          1 UNL1 0.000
     8 C      -4.759109    -0.658907     0.593757 C          1 UNL1 0.000
     9 C      -4.425471    -2.025182     0.588295 C          1 UNL1 0.000
    10 C      -5.466810    -2.956933     0.575523 C          1 UNL1 0.000
    11 C      -6.795271    -2.544111     0.568676 C          1 UNL1 0.000
    12 C      -7.116699    -1.182782     0.575029 C          1 UNL1 0.000
    13 C      -6.084489    -0.220460     0.588074 C          1 UNL1 0.000
    14 C      -2.510416     0.503737     3.093421 C          1 UNL1 0.000
    15 C      -1.811219     0.537151     4.298563 C          1 UNL1 0.000
    16 C      -0.429522     0.562019     4.281974 C          1 UNL1 0.000
    17 C       0.242231     0.552986     3.059960 C          1 UNL1 0.000
    18 C      -0.439491     0.521169     1.813118 C          1 UNL1 0.000
    19 C      -1.851652     0.495720     1.833303 C          1 UNL1 0.000
    20 C       0.235270     0.516778     0.551450 C          1 UNL1 0.000
    21 C      -0.469881     0.478171    -0.692821 C          1 UNL1 0.000
    22 C      -1.881805     0.450218    -0.677550 C          1 UNL1 0.000
    23 C      -2.536848     0.463081     0.586326 C          1 UNL1 0.000
    24 C       0.180996     0.471431    -1.956531 C          1 UNL1 0.000
    25 C      -0.520258     0.438048    -3.161467 C          1 UNL1 0.000
    26 C      -1.901682     0.409383    -3.143493 C          1 UNL1 0.000
    27 C      -2.570804     0.415925    -1.921172 C          1 UNL1 0.000
    28 H      -7.509079     4.306190     0.590508 H          1 UNL1 0.000
    29 H      -5.134620     4.989333     0.612725 H          1 UNL1 0.000
    30 H      -3.329760     3.283870     0.621363 H          1 UNL1 0.000
    31 H      -8.127510     1.905795     0.578945 H          1 UNL1 0.000
    32 H      -3.390076    -2.353961     0.592857 H          1 UNL1 0.000
    33 H      -5.233180    -4.019284     0.570320 H          1 UNL1 0.000
    34 H      -7.591895    -3.283993     0.557983 H          1 UNL1 0.000
    35 H      -8.157123    -0.870762     0.569042 H          1 UNL1 0.000
    36 H      -3.597694     0.482747     3.154451 H          1 UNL1 0.000
    37 H      -2.350493     0.543203     5.241957 H          1 UNL1 0.000
    38 H       0.131338     0.588546     5.212304 H          1 UNL1 0.000
    39 H       1.330400     0.572605     3.094765 H          1 UNL1 0.000
    40 H       1.267824     0.495084    -2.018715 H          1 UNL1 0.000
    41 H       0.017514     0.435828    -4.105646 H          1 UNL1 0.000
    42 H      -2.464269     0.383170    -4.072791 H          1 UNL1 0.000
    43 H      -3.659193     0.393539    -1.955634 H          1 UNL1 0.000
    44 C       1.702403     0.545813     0.532492 C          1 UNL1 0.000
    45 C       2.396501     1.740301     0.525009 C          1 UNL1 0.000
    46 S       4.091451     1.500670     0.500699 S          1 UNL1 0.000
    47 C       3.908631    -0.200600     0.498089 C          1 UNL1 0.000
    48 C       2.584386    -0.579717     0.516540 C          1 UNL1 0.000
    49 H       1.993788     2.744595     0.533116 H          1 UNL1 0.000
    50 H       4.780465    -0.840166     0.482984 H          1 UNL1 0.000
    51 H       2.260418    -1.613644     0.517551 H          1 UNL1 0.000
@<TRIPOS>BOND
     1      1      2   2
     2      2      3   1
     3      3      4   2
     4      4      5   1
     5      5      6   2
     6      6      1   1
     7      4      7   1
     8      7      8   1
     9      8      9   2
    10      9     10   1
    11     10     11   2
    12     11     12   1
    13     12     13   2
    14     13      8   1
    15     13      5   1
    16     14     15   2
    17     15     16   1
    18     16     17   2
    19     17     18   1
    20     18     19   2
    21     19     14   1
    22     18     20   1
    23     20     21   2
    24     21     22   1
    25     22     23   2
    26     23     19   1
    27     21     24   1
    28     24     25   2
    29     25     26   1
    30     26     27   2
    31     27     22   1
    32      7     23   1
    33      1     28   1
    34      2     29   1
    35      3     30   1
    36      6     31   1
    37      9     32   1
    38     10     33   1
    39     11     34   1
    40     12     35   1
    41     14     36   1
    42     15     37   1
    43     16     38   1
    44     17     39   1
    45     24     40   1
    46     25     41   1
    47     26     42   1
    48     27     43   1
    49     44     45   2
    50     45     46   1
    51     46     47   1
    52     47     48   2
    53     48     44   1
    54     45     49   1
    55     47     50   1
    56     48     51   1
    57     20     44   1
