# Produced with molli package
@<TRIPOS>MOLECULE
G_3_P
58 64 0 0 0
SMALL
USER_CHARGES

@<TRIPOS>ATOM
     1 C      -6.609282     3.530045     0.438833 C          1 UNL1 0.000
     2 C      -5.277413     3.927517     0.496570 C          1 UNL1 0.000
     3 C      -4.247164     2.983935     0.515844 C          1 UNL1 0.000
     4 C      -4.595304     1.621775     0.476393 C          1 UNL1 0.000
     5 C      -5.924163     1.198541     0.419503 C          1 UNL1 0.000
     6 C      -6.945222     2.172643     0.400263 C          1 UNL1 0.000
     7 N      -3.803996     0.482370     0.475774 N          1 UNL1 0.000
     8 C      -4.595174    -0.656148     0.429037 C          1 UNL1 0.000
     9 C      -4.246587    -2.018708     0.415953 C          1 UNL1 0.000
    10 C      -5.276463    -2.961140     0.360241 C          1 UNL1 0.000
    11 C      -6.608449    -2.562079     0.318753 C          1 UNL1 0.000
    12 C      -6.944843    -1.204278     0.333594 C          1 UNL1 0.000
    13 C      -5.924080    -0.231355     0.390731 C          1 UNL1 0.000
    14 C      -2.423107     0.532306     3.001778 C          1 UNL1 0.000
    15 C      -1.755511     0.557992     4.224464 C          1 UNL1 0.000
    16 C      -0.373778     0.555089     4.242976 C          1 UNL1 0.000
    17 C       0.328760     0.525451     3.038500 C          1 UNL1 0.000
    18 C      -0.318276     0.499688     1.774512 C          1 UNL1 0.000
    19 C      -1.731851     0.505227     1.759427 C          1 UNL1 0.000
    20 C       0.403429     0.469771     0.535599 C          1 UNL1 0.000
    21 C      -0.282759     0.449075    -0.722642 C          1 UNL1 0.000
    22 C      -1.696090     0.455122    -0.746643 C          1 UNL1 0.000
    23 C      -2.384423     0.481114     0.497176 C          1 UNL1 0.000
    24 C       0.399439     0.426050    -1.967946 C          1 UNL1 0.000
    25 C      -0.269366     0.411686    -3.191849 C          1 UNL1 0.000
    26 C      -1.651004     0.419508    -3.211970 C          1 UNL1 0.000
    27 C      -2.352054     0.440872    -2.008275 C          1 UNL1 0.000
    28 H      -7.397166     4.279080     0.423000 H          1 UNL1 0.000
    29 H      -5.032066     4.986782     0.526136 H          1 UNL1 0.000
    30 H      -3.208777     3.300304     0.559455 H          1 UNL1 0.000
    31 H      -7.988194     1.872842     0.354492 H          1 UNL1 0.000
    32 H      -3.208093    -2.336153     0.447790 H          1 UNL1 0.000
    33 H      -5.030710    -4.020654     0.348937 H          1 UNL1 0.000
    34 H      -7.396104    -3.310218     0.274742 H          1 UNL1 0.000
    35 H      -7.987967    -0.903311     0.301125 H          1 UNL1 0.000
    36 H      -3.511825     0.534441     3.034360 H          1 UNL1 0.000
    37 H      -2.318499     0.580006     5.153497 H          1 UNL1 0.000
    38 H       0.164013     0.575071     5.186918 H          1 UNL1 0.000
    39 H       1.416077     0.523069     3.103063 H          1 UNL1 0.000
    40 H       1.487860     0.420796    -2.000988 H          1 UNL1 0.000
    41 H       0.293584     0.395857    -4.120946 H          1 UNL1 0.000
    42 H      -2.188726     0.410135    -4.156065 H          1 UNL1 0.000
    43 H      -3.439397     0.448722    -2.071859 H          1 UNL1 0.000
    44 C       1.886340     0.471203     0.557736 C          1 UNL1 0.000
    45 C       2.607078    -0.735610     0.596227 C          1 UNL1 0.000
    46 C       4.003767    -0.730194     0.633692 C          1 UNL1 0.000
    47 C       4.685032     0.483264     0.619165 C          1 UNL1 0.000
    48 C       3.991288     1.690353     0.599171 C          1 UNL1 0.000
    49 C       2.596550     1.683909     0.558941 C          1 UNL1 0.000
    50 O       6.049184     0.498404     0.708721 O          1 UNL1 0.000
    51 C       6.631509     0.520117    -0.594558 C          1 UNL1 0.000
    52 H       2.076170    -1.685531     0.609186 H          1 UNL1 0.000
    53 H       4.552330    -1.665982     0.683992 H          1 UNL1 0.000
    54 H       4.532626     2.631379     0.621336 H          1 UNL1 0.000
    55 H       2.058935     2.629733     0.540892 H          1 UNL1 0.000
    56 H       7.654846     0.895187    -0.497050 H          1 UNL1 0.000
    57 H       6.096202     1.181170    -1.286297 H          1 UNL1 0.000
    58 H       6.674861    -0.495248    -1.001418 H          1 UNL1 0.000
@<TRIPOS>BOND
     1      1      2   2
     2      2      3   1
     3      3      4   2
     4      4      5   1
     5      5      6   2
     6      6      1   1
     7      4      7   1
     8      7      8   1
     9      8      9   2
    10      9     10   1
    11     10     11   2
    12     11     12   1
    13     12     13   2
    14     13      8   1
    15     13      5   1
    16     14     15   2
    17     15     16   1
    18     16     17   2
    19     17     18   1
    20     18     19   2
    21     19     14   1
    22     18     20   1
    23     20     21   2
    24     21     22   1
    25     22     23   2
    26     23     19   1
    27     21     24   1
    28     24     25   2
    29     25     26   1
    30     26     27   2
    31     27     22   1
    32      7     23   1
    33      1     28   1
    34      2     29   1
    35      3     30   1
    36      6     31   1
    37      9     32   1
    38     10     33   1
    39     11     34   1
    40     12     35   1
    41     14     36   1
    42     15     37   1
    43     16     38   1
    44     17     39   1
    45     24     40   1
    46     25     41   1
    47     26     42   1
    48     27     43   1
    49     44     45   2
    50     45     46   1
    51     46     47   2
    52     47     48   1
    53     48     49   2
    54     49     44   1
    55     50     51   1
    56     47     50   1
    57     45     52   1
    58     46     53   1
    59     48     54   1
    60     49     55   1
    61     51     56   1
    62     51     57   1
    63     51     58   1
    64     20     44   1
