# Produced with molli package
@<TRIPOS>MOLECULE
G_3_K
56 62 0 0 0
SMALL
USER_CHARGES

@<TRIPOS>ATOM
     1 C      -6.725177     3.557500     0.634373 C          1 UNL1 0.000
     2 C      -5.397181     3.971691     0.623289 C          1 UNL1 0.000
     3 C      -4.355554     3.041242     0.584980 C          1 UNL1 0.000
     4 C      -4.688434     1.675039     0.557318 C          1 UNL1 0.000
     5 C      -6.013146     1.235114     0.565684 C          1 UNL1 0.000
     6 C      -7.045809     2.196166     0.605864 C          1 UNL1 0.000
     7 N      -3.884467     0.545447     0.521310 N          1 UNL1 0.000
     8 C      -4.662656    -0.602616     0.499202 C          1 UNL1 0.000
     9 C      -4.297759    -1.960421     0.459381 C          1 UNL1 0.000
    10 C      -5.316897    -2.915850     0.450778 C          1 UNL1 0.000
    11 C      -6.654118    -2.533814     0.481670 C          1 UNL1 0.000
    12 C      -7.006645    -1.180512     0.520950 C          1 UNL1 0.000
    13 C      -5.996862    -0.194625     0.529535 C          1 UNL1 0.000
    14 C      -2.474208     0.538571     3.028627 C          1 UNL1 0.000
    15 C      -1.793236     0.526379     4.243911 C          1 UNL1 0.000
    16 C      -0.411703     0.522317     4.246836 C          1 UNL1 0.000
    17 C       0.277387     0.529229     3.034102 C          1 UNL1 0.000
    18 C      -0.384123     0.538669     1.776937 C          1 UNL1 0.000
    19 C      -1.797091     0.546231     1.778056 C          1 UNL1 0.000
    20 C       0.322240     0.539081     0.528832 C          1 UNL1 0.000
    21 C      -0.379302     0.553333    -0.722009 C          1 UNL1 0.000
    22 C      -1.792400     0.565724    -0.728807 C          1 UNL1 0.000
    23 C      -2.465176     0.558471     0.523159 C          1 UNL1 0.000
    24 C       0.287191     0.552922    -1.976465 C          1 UNL1 0.000
    25 C      -0.397102     0.570596    -3.191782 C          1 UNL1 0.000
    26 C      -1.778672     0.587531    -3.194191 C          1 UNL1 0.000
    27 C      -2.464768     0.584201    -1.981622 C          1 UNL1 0.000
    28 H      -7.522141     4.296452     0.665320 H          1 UNL1 0.000
    29 H      -5.164220     5.033965     0.645202 H          1 UNL1 0.000
    30 H      -3.320472     3.370780     0.577233 H          1 UNL1 0.000
    31 H      -8.085958     1.883361     0.614822 H          1 UNL1 0.000
    32 H      -3.255183    -2.264734     0.436306 H          1 UNL1 0.000
    33 H      -5.058727    -3.972043     0.420271 H          1 UNL1 0.000
    34 H      -7.433382    -3.291985     0.475553 H          1 UNL1 0.000
    35 H      -8.053848    -0.893202     0.545303 H          1 UNL1 0.000
    36 H      -3.562457     0.542189     3.074313 H          1 UNL1 0.000
    37 H      -2.346606     0.520620     5.179105 H          1 UNL1 0.000
    38 H       0.135361     0.513305     5.185697 H          1 UNL1 0.000
    39 H       1.364556     0.526669     3.087925 H          1 UNL1 0.000
    40 H       1.374482     0.538443    -2.026053 H          1 UNL1 0.000
    41 H       0.153784     0.571271    -4.128483 H          1 UNL1 0.000
    42 H      -2.327919     0.602392    -4.131729 H          1 UNL1 0.000
    43 H      -3.552802     0.597431    -2.030939 H          1 UNL1 0.000
    44 C       1.804885     0.520360     0.531852 C          1 UNL1 0.000
    45 C       2.535195     1.720732     0.468671 C          1 UNL1 0.000
    46 C       3.932234     1.707638     0.466848 C          1 UNL1 0.000
    47 C       4.605139     0.482668     0.537791 C          1 UNL1 0.000
    48 C       3.899536    -0.723751     0.606003 C          1 UNL1 0.000
    49 C       2.502784    -0.699204     0.598288 C          1 UNL1 0.000
    50 N       6.068123     0.463091     0.540467 N          1 UNL1 0.000
    51 O       6.626880    -0.515073     1.056728 O          1 UNL1 0.000
    52 O       6.654813     1.425596     0.026341 O          1 UNL1 0.000
    53 H       2.009402     2.673418     0.417903 H          1 UNL1 0.000
    54 H       4.475669     2.648793     0.415158 H          1 UNL1 0.000
    55 H       4.417238    -1.679196     0.660023 H          1 UNL1 0.000
    56 H       1.951487    -1.637512     0.647052 H          1 UNL1 0.000
@<TRIPOS>BOND
     1      1      2   2
     2      2      3   1
     3      3      4   2
     4      4      5   1
     5      5      6   2
     6      6      1   1
     7      4      7   1
     8      7      8   1
     9      8      9   2
    10      9     10   1
    11     10     11   2
    12     11     12   1
    13     12     13   2
    14     13      8   1
    15     13      5   1
    16     14     15   2
    17     15     16   1
    18     16     17   2
    19     17     18   1
    20     18     19   2
    21     19     14   1
    22     18     20   1
    23     20     21   2
    24     21     22   1
    25     22     23   2
    26     23     19   1
    27     21     24   1
    28     24     25   2
    29     25     26   1
    30     26     27   2
    31     27     22   1
    32      7     23   1
    33      1     28   1
    34      2     29   1
    35      3     30   1
    36      6     31   1
    37      9     32   1
    38     10     33   1
    39     11     34   1
    40     12     35   1
    41     14     36   1
    42     15     37   1
    43     16     38   1
    44     17     39   1
    45     24     40   1
    46     25     41   1
    47     26     42   1
    48     27     43   1
    49     44     45   2
    50     45     46   1
    51     46     47   2
    52     47     48   1
    53     48     49   2
    54     49     44   1
    55     50     51   2
    56     50     52   1
    57     47     50   1
    58     45     53   1
    59     46     54   1
    60     48     55   1
    61     49     56   1
    62     20     44   1
