# Produced with molli package
@<TRIPOS>MOLECULE
G_3_Q
52 58 0 0 0
SMALL
USER_CHARGES

@<TRIPOS>ATOM
     1 C      -6.740294     3.582166     0.510358 C          1 UNL1 0.000
     2 C      -5.409808     3.987929     0.490879 C          1 UNL1 0.000
     3 C      -4.374019     3.050528     0.475358 C          1 UNL1 0.000
     4 C      -4.715374     1.686135     0.477441 C          1 UNL1 0.000
     5 C      -6.042486     1.254441     0.491825 C          1 UNL1 0.000
     6 C      -7.069307     2.222430     0.511035 C          1 UNL1 0.000
     7 N      -3.917540     0.551628     0.472323 N          1 UNL1 0.000
     8 C      -4.702161    -0.592229     0.463251 C          1 UNL1 0.000
     9 C      -4.345776    -1.952722     0.445921 C          1 UNL1 0.000
    10 C      -5.371049    -2.901848     0.449250 C          1 UNL1 0.000
    11 C      -6.705986    -2.511253     0.471949 C          1 UNL1 0.000
    12 C      -7.050099    -1.155430     0.488926 C          1 UNL1 0.000
    13 C      -6.034227    -0.175789     0.482568 C          1 UNL1 0.000
    14 C      -2.552919     0.586556     3.005370 C          1 UNL1 0.000
    15 C      -1.893749     0.608630     4.232543 C          1 UNL1 0.000
    16 C      -0.512392     0.626748     4.260161 C          1 UNL1 0.000
    17 C       0.198753     0.617803     3.060258 C          1 UNL1 0.000
    18 C      -0.440812     0.588576     1.792191 C          1 UNL1 0.000
    19 C      -1.853671     0.579041     1.767134 C          1 UNL1 0.000
    20 C       0.287299     0.568339     0.558394 C          1 UNL1 0.000
    21 C      -0.389396     0.569351    -0.704873 C          1 UNL1 0.000
    22 C      -1.802185     0.557443    -0.739079 C          1 UNL1 0.000
    23 C      -2.498414     0.559804     0.499810 C          1 UNL1 0.000
    24 C       0.302554     0.583169    -1.945265 C          1 UNL1 0.000
    25 C      -0.357804     0.571999    -3.173632 C          1 UNL1 0.000
    26 C      -1.739207     0.549456    -3.203388 C          1 UNL1 0.000
    27 C      -2.449588     0.544726    -2.004756 C          1 UNL1 0.000
    28 H      -7.532463     4.326682     0.524609 H          1 UNL1 0.000
    29 H      -5.169564     5.048802     0.488795 H          1 UNL1 0.000
    30 H      -3.336589     3.373451     0.461993 H          1 UNL1 0.000
    31 H      -8.111335     1.916370     0.525831 H          1 UNL1 0.000
    32 H      -3.305220    -2.263952     0.430075 H          1 UNL1 0.000
    33 H      -5.119636    -3.960019     0.435044 H          1 UNL1 0.000
    34 H      -7.490031    -3.264484     0.476314 H          1 UNL1 0.000
    35 H      -8.095486    -0.861063     0.506548 H          1 UNL1 0.000
    36 H      -3.641781     0.577868     3.031693 H          1 UNL1 0.000
    37 H      -2.463732     0.617518     5.157632 H          1 UNL1 0.000
    38 H       0.017713     0.653481     5.208338 H          1 UNL1 0.000
    39 H       1.285151     0.649861     3.132851 H          1 UNL1 0.000
    40 H       1.390919     0.619329    -1.973303 H          1 UNL1 0.000
    41 H       0.211777     0.587026    -4.098941 H          1 UNL1 0.000
    42 H      -2.269388     0.542592    -4.151863 H          1 UNL1 0.000
    43 H      -3.536469     0.534043    -2.075423 H          1 UNL1 0.000
    44 C       1.759679     0.512055     0.588287 C          1 UNL1 0.000
    45 N       2.415845     1.700809     0.613806 N          1 UNL1 0.000
    46 C       3.766631     1.627274     0.633633 C          1 UNL1 0.000
    47 C       4.447126     0.421472     0.628193 C          1 UNL1 0.000
    48 N       3.809321    -0.769686     0.604123 N          1 UNL1 0.000
    49 C       2.455331    -0.696552     0.584760 C          1 UNL1 0.000
    50 H       4.292818     2.574885     0.653564 H          1 UNL1 0.000
    51 H       5.530375     0.381699     0.642802 H          1 UNL1 0.000
    52 H       1.935105    -1.648622     0.563720 H          1 UNL1 0.000
@<TRIPOS>BOND
     1      1      2   2
     2      2      3   1
     3      3      4   2
     4      4      5   1
     5      5      6   2
     6      6      1   1
     7      4      7   1
     8      7      8   1
     9      8      9   2
    10      9     10   1
    11     10     11   2
    12     11     12   1
    13     12     13   2
    14     13      8   1
    15     13      5   1
    16     14     15   2
    17     15     16   1
    18     16     17   2
    19     17     18   1
    20     18     19   2
    21     19     14   1
    22     18     20   1
    23     20     21   2
    24     21     22   1
    25     22     23   2
    26     23     19   1
    27     21     24   1
    28     24     25   2
    29     25     26   1
    30     26     27   2
    31     27     22   1
    32      7     23   1
    33      1     28   1
    34      2     29   1
    35      3     30   1
    36      6     31   1
    37      9     32   1
    38     10     33   1
    39     11     34   1
    40     12     35   1
    41     14     36   1
    42     15     37   1
    43     16     38   1
    44     17     39   1
    45     24     40   1
    46     25     41   1
    47     26     42   1
    48     27     43   1
    49     44     45   2
    50     45     46   1
    51     46     47   2
    52     47     48   1
    53     48     49   2
    54     49     44   1
    55     46     50   1
    56     47     51   1
    57     49     52   1
    58     20     44   1
