# Produced with molli package
@<TRIPOS>MOLECULE
G_3_M
55 61 0 0 0
SMALL
USER_CHARGES

@<TRIPOS>ATOM
     1 C      -6.699922     3.481650     0.490502 C          1 UNL1 0.000
     2 C      -5.374013     3.898812     0.435575 C          1 UNL1 0.000
     3 C      -4.329053     2.970981     0.426836 C          1 UNL1 0.000
     4 C      -4.656056     1.603737     0.472904 C          1 UNL1 0.000
     5 C      -5.978846     1.161489     0.525416 C          1 UNL1 0.000
     6 C      -7.014913     2.119737     0.535834 C          1 UNL1 0.000
     7 N      -3.847488     0.475926     0.484070 N          1 UNL1 0.000
     8 C      -4.623161    -0.673934     0.525289 C          1 UNL1 0.000
     9 C      -4.257321    -2.031913     0.541105 C          1 UNL1 0.000
    10 C      -5.275517    -2.987647     0.595600 C          1 UNL1 0.000
    11 C      -6.612761    -2.606341     0.635173 C          1 UNL1 0.000
    12 C      -6.966479    -1.253397     0.617412 C          1 UNL1 0.000
    13 C      -5.958203    -0.267641     0.559486 C          1 UNL1 0.000
    14 C      -2.432511     0.542073     2.989185 C          1 UNL1 0.000
    15 C      -1.750326     0.583519     4.203268 C          1 UNL1 0.000
    16 C      -0.369265     0.624053     4.204283 C          1 UNL1 0.000
    17 C       0.318616     0.619982     2.990912 C          1 UNL1 0.000
    18 C      -0.343992     0.575525     1.735440 C          1 UNL1 0.000
    19 C      -1.757275     0.537903     1.737733 C          1 UNL1 0.000
    20 C       0.362162     0.567487     0.488076 C          1 UNL1 0.000
    21 C      -0.340545     0.520494    -0.761181 C          1 UNL1 0.000
    22 C      -1.753941     0.487060    -0.767730 C          1 UNL1 0.000
    23 C      -2.427249     0.498012     0.483856 C          1 UNL1 0.000
    24 C       0.326795     0.506089    -2.014867 C          1 UNL1 0.000
    25 C      -0.356207     0.460904    -3.229847 C          1 UNL1 0.000
    26 C      -1.737604     0.430349    -3.232458 C          1 UNL1 0.000
    27 C      -2.425028     0.443666    -2.020395 C          1 UNL1 0.000
    28 H      -7.499489     4.218389     0.498305 H          1 UNL1 0.000
    29 H      -5.145277     4.961612     0.399977 H          1 UNL1 0.000
    30 H      -3.295754     3.303531     0.385599 H          1 UNL1 0.000
    31 H      -8.053379     1.804052     0.578764 H          1 UNL1 0.000
    32 H      -3.215021    -2.336470     0.512360 H          1 UNL1 0.000
    33 H      -5.016736    -4.044060     0.608511 H          1 UNL1 0.000
    34 H      -7.390987    -3.364313     0.680005 H          1 UNL1 0.000
    35 H      -8.013459    -0.965640     0.648519 H          1 UNL1 0.000
    36 H      -3.520208     0.511231     3.036784 H          1 UNL1 0.000
    37 H      -2.302525     0.584124     5.139155 H          1 UNL1 0.000
    38 H       0.178430     0.658180     5.142165 H          1 UNL1 0.000
    39 H       1.405562     0.652336     3.042257 H          1 UNL1 0.000
    40 H       1.414112     0.529705    -2.063792 H          1 UNL1 0.000
    41 H       0.195888     0.450089    -4.165746 H          1 UNL1 0.000
    42 H      -2.285522     0.395739    -4.170201 H          1 UNL1 0.000
    43 H      -3.512770     0.418000    -2.069921 H          1 UNL1 0.000
    44 C       1.844838     0.607494     0.486870 C          1 UNL1 0.000
    45 C       2.528435     1.834237     0.463137 C          1 UNL1 0.000
    46 C       3.925992     1.872400     0.444919 C          1 UNL1 0.000
    47 C       4.660146     0.682534     0.450371 C          1 UNL1 0.000
    48 C       3.990766    -0.544610     0.479071 C          1 UNL1 0.000
    49 C       2.593239    -0.580915     0.497920 C          1 UNL1 0.000
    50 C       6.093226     0.720378     0.422417 C          1 UNL1 0.000
    51 N       7.253044     0.750738     0.397542 N          1 UNL1 0.000
    52 H       1.968289     2.768098     0.454615 H          1 UNL1 0.000
    53 H       4.433061     2.835428     0.423227 H          1 UNL1 0.000
    54 H       4.548633    -1.479346     0.483715 H          1 UNL1 0.000
    55 H       2.083833    -1.543234     0.516363 H          1 UNL1 0.000
@<TRIPOS>BOND
     1      1      2   2
     2      2      3   1
     3      3      4   2
     4      4      5   1
     5      5      6   2
     6      6      1   1
     7      4      7   1
     8      7      8   1
     9      8      9   2
    10      9     10   1
    11     10     11   2
    12     11     12   1
    13     12     13   2
    14     13      8   1
    15     13      5   1
    16     14     15   2
    17     15     16   1
    18     16     17   2
    19     17     18   1
    20     18     19   2
    21     19     14   1
    22     18     20   1
    23     20     21   2
    24     21     22   1
    25     22     23   2
    26     23     19   1
    27     21     24   1
    28     24     25   2
    29     25     26   1
    30     26     27   2
    31     27     22   1
    32      7     23   1
    33      1     28   1
    34      2     29   1
    35      3     30   1
    36      6     31   1
    37      9     32   1
    38     10     33   1
    39     11     34   1
    40     12     35   1
    41     14     36   1
    42     15     37   1
    43     16     38   1
    44     17     39   1
    45     24     40   1
    46     25     41   1
    47     26     42   1
    48     27     43   1
    49     44     45   2
    50     45     46   1
    51     46     47   2
    52     47     48   1
    53     48     49   2
    54     49     44   1
    55     50     51   3
    56     47     50   1
    57     45     52   1
    58     46     53   1
    59     48     54   1
    60     49     55   1
    61     20     44   1
