# Produced with molli package
@<TRIPOS>MOLECULE
G_3_R
55 61 0 0 0
SMALL
USER_CHARGES

@<TRIPOS>ATOM
     1 C      -6.638244     3.656199     0.429294 C          1 UNL1 0.000
     2 C      -5.302644     4.044356     0.456888 C          1 UNL1 0.000
     3 C      -4.279104     3.093432     0.469651 C          1 UNL1 0.000
     4 C      -4.638112     1.733665     0.453890 C          1 UNL1 0.000
     5 C      -5.970742     1.319561     0.425417 C          1 UNL1 0.000
     6 C      -6.984842     2.300977     0.413443 C          1 UNL1 0.000
     7 N      -3.855628     0.588598     0.459382 N          1 UNL1 0.000
     8 C      -4.655111    -0.544708     0.434751 C          1 UNL1 0.000
     9 C      -4.316113    -1.909777     0.430375 C          1 UNL1 0.000
    10 C      -5.353158    -2.845418     0.402862 C          1 UNL1 0.000
    11 C      -6.682813    -2.437215     0.381005 C          1 UNL1 0.000
    12 C      -7.009554    -1.076928     0.386251 C          1 UNL1 0.000
    13 C      -5.981336    -0.110658     0.413690 C          1 UNL1 0.000
    14 C      -2.480565     0.624358     2.987522 C          1 UNL1 0.000
    15 C      -1.815757     0.639779     4.211872 C          1 UNL1 0.000
    16 C      -0.434321     0.624153     4.233916 C          1 UNL1 0.000
    17 C       0.270960     0.588013     3.031204 C          1 UNL1 0.000
    18 C      -0.373892     0.565707     1.765718 C          1 UNL1 0.000
    19 C      -1.786532     0.590685     1.746836 C          1 UNL1 0.000
    20 C       0.349017     0.515856     0.528984 C          1 UNL1 0.000
    21 C      -0.333266     0.523157    -0.731916 C          1 UNL1 0.000
    22 C      -1.745847     0.545823    -0.759360 C          1 UNL1 0.000
    23 C      -2.436607     0.575611     0.482770 C          1 UNL1 0.000
    24 C       0.351808     0.511073    -1.976555 C          1 UNL1 0.000
    25 C      -0.314834     0.504753    -3.201771 C          1 UNL1 0.000
    26 C      -1.696256     0.516028    -3.224426 C          1 UNL1 0.000
    27 C      -2.399720     0.539415    -2.022121 C          1 UNL1 0.000
    28 H      -7.420668     4.411062     0.419551 H          1 UNL1 0.000
    29 H      -5.048828     5.102037     0.468513 H          1 UNL1 0.000
    30 H      -3.237721     3.402852     0.490904 H          1 UNL1 0.000
    31 H      -8.030710     2.008711     0.391386 H          1 UNL1 0.000
    32 H      -3.279703    -2.234316     0.447723 H          1 UNL1 0.000
    33 H      -5.115369    -3.906782     0.398697 H          1 UNL1 0.000
    34 H      -7.476416    -3.180081     0.359830 H          1 UNL1 0.000
    35 H      -8.051016    -0.768930     0.369218 H          1 UNL1 0.000
    36 H      -3.569175     0.642369     3.017734 H          1 UNL1 0.000
    37 H      -2.381270     0.670149     5.139255 H          1 UNL1 0.000
    38 H       0.100321     0.646138     5.179638 H          1 UNL1 0.000
    39 H       1.357635     0.593523     3.098270 H          1 UNL1 0.000
    40 H       1.439859     0.522367    -2.010285 H          1 UNL1 0.000
    41 H       0.249260     0.498310    -4.130523 H          1 UNL1 0.000
    42 H      -2.232130     0.515026    -4.169786 H          1 UNL1 0.000
    43 H      -3.486821     0.557159    -2.087814 H          1 UNL1 0.000
    44 C       1.822579     0.421283     0.555647 C          1 UNL1 0.000
    45 N       2.493670     1.597300     0.671449 N          1 UNL1 0.000
    46 C       3.847969     1.548077     0.703810 C          1 UNL1 0.000
    47 C       4.558049     0.363536     0.614308 C          1 UNL1 0.000
    48 C       3.869711    -0.842982     0.492928 C          1 UNL1 0.000
    49 C       2.476106    -0.811486     0.469635 C          1 UNL1 0.000
    50 N       6.006469     0.392572     0.643118 N          1 UNL1 0.000
    51 O       6.606261    -0.503001     0.035254 O          1 UNL1 0.000
    52 O       6.546878     1.310284     1.276416 O          1 UNL1 0.000
    53 H       4.335792     2.515259     0.797920 H          1 UNL1 0.000
    54 H       4.394284    -1.792532     0.422757 H          1 UNL1 0.000
    55 H       1.905500    -1.732162     0.382600 H          1 UNL1 0.000
@<TRIPOS>BOND
     1      1      2   2
     2      2      3   1
     3      3      4   2
     4      4      5   1
     5      5      6   2
     6      6      1   1
     7      4      7   1
     8      7      8   1
     9      8      9   2
    10      9     10   1
    11     10     11   2
    12     11     12   1
    13     12     13   2
    14     13      8   1
    15     13      5   1
    16     14     15   2
    17     15     16   1
    18     16     17   2
    19     17     18   1
    20     18     19   2
    21     19     14   1
    22     18     20   1
    23     20     21   2
    24     21     22   1
    25     22     23   2
    26     23     19   1
    27     21     24   1
    28     24     25   2
    29     25     26   1
    30     26     27   2
    31     27     22   1
    32      7     23   1
    33      1     28   1
    34      2     29   1
    35      3     30   1
    36      6     31   1
    37      9     32   1
    38     10     33   1
    39     11     34   1
    40     12     35   1
    41     14     36   1
    42     15     37   1
    43     16     38   1
    44     17     39   1
    45     24     40   1
    46     25     41   1
    47     26     42   1
    48     27     43   1
    49     44     45   2
    50     45     46   1
    51     46     47   2
    52     47     48   1
    53     48     49   2
    54     49     44   1
    55     50     51   2
    56     50     52   1
    57     47     50   1
    58     46     53   1
    59     48     54   1
    60     49     55   1
    61     20     44   1
