# Produced with molli package
@<TRIPOS>MOLECULE
G_3_S
59 65 0 0 0
SMALL
USER_CHARGES

@<TRIPOS>ATOM
     1 C      -6.602061     3.578687     0.563272 C          1 UNL1 0.000
     2 C      -5.269519     3.978106     0.568013 C          1 UNL1 0.000
     3 C      -4.237777     3.036379     0.534793 C          1 UNL1 0.000
     4 C      -4.585186     1.674001     0.497164 C          1 UNL1 0.000
     5 C      -5.914778     1.248919     0.491265 C          1 UNL1 0.000
     6 C      -6.937238     2.221150     0.524912 C          1 UNL1 0.000
     7 N      -3.793266     0.535703     0.461030 N          1 UNL1 0.000
     8 C      -4.584233    -0.603594     0.433410 C          1 UNL1 0.000
     9 C      -4.234343    -1.965406     0.397203 C          1 UNL1 0.000
    10 C      -5.264102    -2.909271     0.378163 C          1 UNL1 0.000
    11 C      -6.597210    -2.512200     0.394311 C          1 UNL1 0.000
    12 C      -6.934796    -1.155060     0.430586 C          1 UNL1 0.000
    13 C      -5.914042    -0.180721     0.451250 C          1 UNL1 0.000
    14 C      -2.381577     0.512270     2.968236 C          1 UNL1 0.000
    15 C      -1.699670     0.493322     4.183020 C          1 UNL1 0.000
    16 C      -0.318224     0.478205     4.184925 C          1 UNL1 0.000
    17 C       0.369741     0.481599     2.971733 C          1 UNL1 0.000
    18 C      -0.292447     0.498805     1.715093 C          1 UNL1 0.000
    19 C      -1.705324     0.516068     1.717170 C          1 UNL1 0.000
    20 C       0.414306     0.497762     0.467026 C          1 UNL1 0.000
    21 C      -0.287437     0.515594    -0.783158 C          1 UNL1 0.000
    22 C      -1.700835     0.534091    -0.789487 C          1 UNL1 0.000
    23 C      -2.373750     0.533340     0.462727 C          1 UNL1 0.000
    24 C       0.379068     0.514813    -2.037334 C          1 UNL1 0.000
    25 C      -0.305663     0.532133    -3.252577 C          1 UNL1 0.000
    26 C      -1.687345     0.551789    -3.254909 C          1 UNL1 0.000
    27 C      -2.373317     0.553187    -2.042253 C          1 UNL1 0.000
    28 H      -7.391079     4.326279     0.589799 H          1 UNL1 0.000
    29 H      -5.024975     5.037589     0.598186 H          1 UNL1 0.000
    30 H      -3.199073     3.354622     0.538900 H          1 UNL1 0.000
    31 H      -7.980787     1.919802     0.521936 H          1 UNL1 0.000
    32 H      -3.195012    -2.281200     0.385116 H          1 UNL1 0.000
    33 H      -5.017539    -3.968278     0.350807 H          1 UNL1 0.000
    34 H      -7.384928    -3.261427     0.379373 H          1 UNL1 0.000
    35 H      -7.978839    -0.855778     0.443940 H          1 UNL1 0.000
    36 H      -3.469671     0.524556     3.014511 H          1 UNL1 0.000
    37 H      -2.252058     0.491523     5.118713 H          1 UNL1 0.000
    38 H       0.230189     0.464692     5.122861 H          1 UNL1 0.000
    39 H       1.457160     0.471369     3.024118 H          1 UNL1 0.000
    40 H       1.466655     0.501936    -2.085616 H          1 UNL1 0.000
    41 H       0.245155     0.531823    -4.189264 H          1 UNL1 0.000
    42 H      -2.236749     0.567080    -4.192323 H          1 UNL1 0.000
    43 H      -3.461262     0.570859    -2.091432 H          1 UNL1 0.000
    44 C       1.896598     0.476378     0.473513 C          1 UNL1 0.000
    45 C       2.630187     1.669982     0.476015 C          1 UNL1 0.000
    46 C       4.028002     1.645376     0.499808 C          1 UNL1 0.000
    47 C       4.726370     0.428402     0.523488 C          1 UNL1 0.000
    48 C       3.997925    -0.765621     0.523712 C          1 UNL1 0.000
    49 C       2.597037    -0.739344     0.494274 C          1 UNL1 0.000
    50 C       6.222088     0.487530     0.554829 C          1 UNL1 0.000
    51 C       7.052863    -0.770748     0.553939 C          1 UNL1 0.000
    52 O       6.778291     1.585094     0.599067 O          1 UNL1 0.000
    53 H       2.114495     2.628696     0.464244 H          1 UNL1 0.000
    54 H       4.570183     2.590139     0.504295 H          1 UNL1 0.000
    55 H       4.476878    -1.737895     0.552297 H          1 UNL1 0.000
    56 H       2.046541    -1.679261     0.494954 H          1 UNL1 0.000
    57 H       7.839558    -0.664732    -0.199659 H          1 UNL1 0.000
    58 H       6.495818    -1.671377     0.304364 H          1 UNL1 0.000
    59 H       7.508041    -0.895569     1.540279 H          1 UNL1 0.000
@<TRIPOS>BOND
     1      1      2   2
     2      2      3   1
     3      3      4   2
     4      4      5   1
     5      5      6   2
     6      6      1   1
     7      4      7   1
     8      7      8   1
     9      8      9   2
    10      9     10   1
    11     10     11   2
    12     11     12   1
    13     12     13   2
    14     13      8   1
    15     13      5   1
    16     14     15   2
    17     15     16   1
    18     16     17   2
    19     17     18   1
    20     18     19   2
    21     19     14   1
    22     18     20   1
    23     20     21   2
    24     21     22   1
    25     22     23   2
    26     23     19   1
    27     21     24   1
    28     24     25   2
    29     25     26   1
    30     26     27   2
    31     27     22   1
    32      7     23   1
    33      1     28   1
    34      2     29   1
    35      3     30   1
    36      6     31   1
    37      9     32   1
    38     10     33   1
    39     11     34   1
    40     12     35   1
    41     14     36   1
    42     15     37   1
    43     16     38   1
    44     17     39   1
    45     24     40   1
    46     25     41   1
    47     26     42   1
    48     27     43   1
    49     44     45   2
    50     45     46   1
    51     46     47   2
    52     47     48   1
    53     48     49   2
    54     49     44   1
    55     47     50   1
    56     50     51   1
    57     50     52   2
    58     45     53   1
    59     46     54   1
    60     48     55   1
    61     49     56   1
    62     51     57   1
    63     51     58   1
    64     51     59   1
    65     20     44   1
