# Produced with molli package
@<TRIPOS>MOLECULE
G_3_L
58 65 0 0 0
SMALL
USER_CHARGES

@<TRIPOS>ATOM
     1 C      -6.635958     3.514193     0.485947 C          1 UNL1 0.000
     2 C      -5.302077     3.908801     0.500469 C          1 UNL1 0.000
     3 C      -4.273953     2.962840     0.523393 C          1 UNL1 0.000
     4 C      -4.626247     1.601195     0.533621 C          1 UNL1 0.000
     5 C      -5.957205     1.181120     0.524170 C          1 UNL1 0.000
     6 C      -6.976035     2.157408     0.497557 C          1 UNL1 0.000
     7 N      -3.837892     0.459608     0.553755 N          1 UNL1 0.000
     8 C      -4.633454    -0.676909     0.569360 C          1 UNL1 0.000
     9 C      -4.289887    -2.040428     0.598956 C          1 UNL1 0.000
    10 C      -5.324221    -2.979819     0.610088 C          1 UNL1 0.000
    11 C      -6.655638    -2.577122     0.590263 C          1 UNL1 0.000
    12 C      -6.986973    -1.218518     0.558902 C          1 UNL1 0.000
    13 C      -5.961765    -0.248659     0.549144 C          1 UNL1 0.000
    14 C      -2.430805     0.464975     3.065213 C          1 UNL1 0.000
    15 C      -1.750603     0.467254     4.281273 C          1 UNL1 0.000
    16 C      -0.368889     0.467455     4.285669 C          1 UNL1 0.000
    17 C       0.321386     0.465832     3.073785 C          1 UNL1 0.000
    18 C      -0.338966     0.465092     1.816419 C          1 UNL1 0.000
    19 C      -1.752184     0.462661     1.815486 C          1 UNL1 0.000
    20 C       0.370675     0.464133     0.570481 C          1 UNL1 0.000
    21 C      -0.328546     0.456919    -0.681010 C          1 UNL1 0.000
    22 C      -1.741888     0.449560    -0.691163 C          1 UNL1 0.000
    23 C      -2.418217     0.456143     0.559585 C          1 UNL1 0.000
    24 C       0.342120     0.455444    -1.932887 C          1 UNL1 0.000
    25 C      -0.338416     0.439531    -3.150244 C          1 UNL1 0.000
    26 C      -1.720137     0.426838    -3.156901 C          1 UNL1 0.000
    27 C      -2.410246     0.433420    -1.946354 C          1 UNL1 0.000
    28 H      -7.422171     4.264883     0.466643 H          1 UNL1 0.000
    29 H      -5.053442     4.967667     0.493664 H          1 UNL1 0.000
    30 H      -3.234034     3.276975     0.534194 H          1 UNL1 0.000
    31 H      -8.020533     1.859608     0.487551 H          1 UNL1 0.000
    32 H      -3.251938    -2.360937     0.614482 H          1 UNL1 0.000
    33 H      -5.082379    -4.040005     0.634873 H          1 UNL1 0.000
    34 H      -7.446715    -3.322871     0.599792 H          1 UNL1 0.000
    35 H      -8.029572    -0.914324     0.544329 H          1 UNL1 0.000
    36 H      -3.518953     0.462892     3.109025 H          1 UNL1 0.000
    37 H      -2.304349     0.466997     5.216065 H          1 UNL1 0.000
    38 H       0.178652     0.467449     5.224119 H          1 UNL1 0.000
    39 H       1.409263     0.462935     3.126204 H          1 UNL1 0.000
    40 H       1.430377     0.465066    -1.976335 H          1 UNL1 0.000
    41 H       0.216551     0.435560    -4.084351 H          1 UNL1 0.000
    42 H      -2.266234     0.411770    -4.096100 H          1 UNL1 0.000
    43 H      -3.497965     0.423049    -1.998961 H          1 UNL1 0.000
    44 C       1.854445     0.461984     0.577904 C          1 UNL1 0.000
    45 C       2.569305     1.667825     0.642735 C          1 UNL1 0.000
    46 C       3.968783     1.694077     0.661077 C          1 UNL1 0.000
    47 C       4.638321     0.467360     0.607992 C          1 UNL1 0.000
    48 C       3.968999    -0.753748     0.538581 C          1 UNL1 0.000
    49 C       2.560681    -0.755755     0.525023 C          1 UNL1 0.000
    50 N       5.987047     0.189262     0.611465 N          1 UNL1 0.000
    51 C       6.191805    -1.163431     0.542597 C          1 UNL1 0.000
    52 C       4.959221    -1.773529     0.495909 C          1 UNL1 0.000
    53 H       2.027077     2.611530     0.684120 H          1 UNL1 0.000
    54 H       4.506163     2.635105     0.715340 H          1 UNL1 0.000
    55 H       2.022048    -1.698494     0.473528 H          1 UNL1 0.000
    56 H       6.715934     0.887682     0.657951 H          1 UNL1 0.000
    57 H       7.192611    -1.573638     0.533192 H          1 UNL1 0.000
    58 H       4.784372    -2.839828     0.437763 H          1 UNL1 0.000
@<TRIPOS>BOND
     1      1      2   2
     2      2      3   1
     3      3      4   2
     4      4      5   1
     5      5      6   2
     6      6      1   1
     7      4      7   1
     8      7      8   1
     9      8      9   2
    10      9     10   1
    11     10     11   2
    12     11     12   1
    13     12     13   2
    14     13      8   1
    15     13      5   1
    16     14     15   2
    17     15     16   1
    18     16     17   2
    19     17     18   1
    20     18     19   2
    21     19     14   1
    22     18     20   1
    23     20     21   2
    24     21     22   1
    25     22     23   2
    26     23     19   1
    27     21     24   1
    28     24     25   2
    29     25     26   1
    30     26     27   2
    31     27     22   1
    32      7     23   1
    33      1     28   1
    34      2     29   1
    35      3     30   1
    36      6     31   1
    37      9     32   1
    38     10     33   1
    39     11     34   1
    40     12     35   1
    41     14     36   1
    42     15     37   1
    43     16     38   1
    44     17     39   1
    45     24     40   1
    46     25     41   1
    47     26     42   1
    48     27     43   1
    49     44     45   2
    50     45     46   1
    51     46     47   2
    52     47     48   1
    53     48     49   2
    54     49     44   1
    55     47     50   1
    56     50     51   1
    57     51     52   2
    58     52     48   1
    59     45     53   1
    60     46     54   1
    61     49     55   1
    62     50     56   1
    63     51     57   1
    64     52     58   1
    65     20     44   1
