# Produced with molli package
@<TRIPOS>MOLECULE
G_3_T
57 63 0 0 0
SMALL
USER_CHARGES

@<TRIPOS>ATOM
     1 C      -6.620406     3.543611     0.651057 C          1 UNL1 0.000
     2 C      -5.287845     3.940143     0.604704 C          1 UNL1 0.000
     3 C      -4.259945     2.995540     0.551865 C          1 UNL1 0.000
     4 C      -4.611173     1.633627     0.546605 C          1 UNL1 0.000
     5 C      -5.940460     1.211179     0.591938 C          1 UNL1 0.000
     6 C      -6.959328     2.186263     0.645043 C          1 UNL1 0.000
     7 N      -3.821843     0.493707     0.505324 N          1 UNL1 0.000
     8 C      -4.614357    -0.644607     0.518627 C          1 UNL1 0.000
     9 C      -4.267948    -2.007422     0.488967 C          1 UNL1 0.000
    10 C      -5.299426    -2.949409     0.517904 C          1 UNL1 0.000
    11 C      -6.630721    -2.549701     0.574535 C          1 UNL1 0.000
    12 C      -6.964864    -1.191594     0.602875 C          1 UNL1 0.000
    13 C      -5.942575    -0.218990     0.574194 C          1 UNL1 0.000
    14 C      -2.353093     0.432369     2.979039 C          1 UNL1 0.000
    15 C      -1.643257     0.408931     4.177668 C          1 UNL1 0.000
    16 C      -0.261995     0.421418     4.147876 C          1 UNL1 0.000
    17 C       0.397509     0.457286     2.919497 C          1 UNL1 0.000
    18 C      -0.293653     0.483126     1.678895 C          1 UNL1 0.000
    19 C      -1.706126     0.469229     1.712982 C          1 UNL1 0.000
    20 C       0.383980     0.522862     0.415743 C          1 UNL1 0.000
    21 C      -0.346008     0.548707    -0.817741 C          1 UNL1 0.000
    22 C      -1.759169     0.532178    -0.792784 C          1 UNL1 0.000
    23 C      -2.402855     0.494299     0.473982 C          1 UNL1 0.000
    24 C       0.292375     0.591697    -2.085489 C          1 UNL1 0.000
    25 C      -0.419013     0.613521    -3.285083 C          1 UNL1 0.000
    26 C      -1.800545     0.593200    -3.257247 C          1 UNL1 0.000
    27 C      -2.459457     0.553673    -2.030180 C          1 UNL1 0.000
    28 H      -7.406541     4.293464     0.692906 H          1 UNL1 0.000
    29 H      -5.039927     4.999170     0.610371 H          1 UNL1 0.000
    30 H      -3.220791     3.310742     0.516993 H          1 UNL1 0.000
    31 H      -8.002892     1.887420     0.682391 H          1 UNL1 0.000
    32 H      -3.230034    -2.325307     0.445637 H          1 UNL1 0.000
    33 H      -5.055511    -4.009212     0.496406 H          1 UNL1 0.000
    34 H      -7.419540    -3.297541     0.597323 H          1 UNL1 0.000
    35 H      -8.007336    -0.890013     0.647635 H          1 UNL1 0.000
    36 H      -3.439829     0.421015     3.050014 H          1 UNL1 0.000
    37 H      -2.173753     0.380944     5.125421 H          1 UNL1 0.000
    38 H       0.308582     0.403672     5.072287 H          1 UNL1 0.000
    39 H       1.486313     0.465561     2.945036 H          1 UNL1 0.000
    40 H       1.379122     0.609628    -2.155728 H          1 UNL1 0.000
    41 H       0.111619     0.645891    -4.232670 H          1 UNL1 0.000
    42 H      -2.370370     0.608423    -4.182258 H          1 UNL1 0.000
    43 H      -3.548221     0.538901    -2.055120 H          1 UNL1 0.000
    44 C       1.866207     0.533968     0.387628 C          1 UNL1 0.000
    45 C       2.575933     1.742950     0.444815 C          1 UNL1 0.000
    46 C       3.973395     1.751339     0.436937 C          1 UNL1 0.000
    47 C       4.688848     0.551504     0.360446 C          1 UNL1 0.000
    48 C       3.986309    -0.657739     0.308427 C          1 UNL1 0.000
    49 C       2.589279    -0.666330     0.318534 C          1 UNL1 0.000
    50 C       6.188671     0.548647     0.385866 C          1 UNL1 0.000
    51 H       2.037523     2.686797     0.503922 H          1 UNL1 0.000
    52 H       4.497272     2.702879     0.492921 H          1 UNL1 0.000
    53 H       4.522868    -1.602837     0.262559 H          1 UNL1 0.000
    54 H       2.061490    -1.617093     0.277997 H          1 UNL1 0.000
    55 H       6.583252    -0.150287    -0.358960 H          1 UNL1 0.000
    56 H       6.545363     0.254464     1.377917 H          1 UNL1 0.000
    57 H       6.592806     1.539066     0.151900 H          1 UNL1 0.000
@<TRIPOS>BOND
     1      1      2   2
     2      2      3   1
     3      3      4   2
     4      4      5   1
     5      5      6   2
     6      6      1   1
     7      4      7   1
     8      7      8   1
     9      8      9   2
    10      9     10   1
    11     10     11   2
    12     11     12   1
    13     12     13   2
    14     13      8   1
    15     13      5   1
    16     14     15   2
    17     15     16   1
    18     16     17   2
    19     17     18   1
    20     18     19   2
    21     19     14   1
    22     18     20   1
    23     20     21   2
    24     21     22   1
    25     22     23   2
    26     23     19   1
    27     21     24   1
    28     24     25   2
    29     25     26   1
    30     26     27   2
    31     27     22   1
    32      7     23   1
    33      1     28   1
    34      2     29   1
    35      3     30   1
    36      6     31   1
    37      9     32   1
    38     10     33   1
    39     11     34   1
    40     12     35   1
    41     14     36   1
    42     15     37   1
    43     16     38   1
    44     17     39   1
    45     24     40   1
    46     25     41   1
    47     26     42   1
    48     27     43   1
    49     44     45   2
    50     45     46   1
    51     46     47   2
    52     47     48   1
    53     48     49   2
    54     49     44   1
    55     47     50   1
    56     45     51   1
    57     46     52   1
    58     48     53   1
    59     49     54   1
    60     50     55   1
    61     50     56   1
    62     50     57   1
    63     20     44   1
