# Produced with molli package
@<TRIPOS>MOLECULE
G_3_O
53 59 0 0 0
SMALL
USER_CHARGES

@<TRIPOS>ATOM
     1 C      -6.672212     3.564657     0.419955 C          1 UNL1 0.000
     2 C      -5.343057     3.974964     0.438169 C          1 UNL1 0.000
     3 C      -4.303791     3.041272     0.461523 C          1 UNL1 0.000
     4 C      -4.640252     1.675702     0.467800 C          1 UNL1 0.000
     5 C      -5.966173     1.239626     0.453002 C          1 UNL1 0.000
     6 C      -6.996392     2.203891     0.426945 C          1 UNL1 0.000
     7 N      -3.838937     0.543711     0.487785 N          1 UNL1 0.000
     8 C      -4.620584    -0.602414     0.495643 C          1 UNL1 0.000
     9 C      -4.259644    -1.961616     0.520393 C          1 UNL1 0.000
    10 C      -5.281547    -2.914173     0.521294 C          1 UNL1 0.000
    11 C      -6.617738    -2.528054     0.496438 C          1 UNL1 0.000
    12 C      -6.966346    -1.173442     0.470838 C          1 UNL1 0.000
    13 C      -5.953708    -0.190417     0.471303 C          1 UNL1 0.000
    14 C      -2.434990     0.551751     3.001097 C          1 UNL1 0.000
    15 C      -1.755961     0.550131     4.217773 C          1 UNL1 0.000
    16 C      -0.374005     0.549215     4.223480 C          1 UNL1 0.000
    17 C       0.317761     0.545754     3.012242 C          1 UNL1 0.000
    18 C      -0.341788     0.538985     1.754593 C          1 UNL1 0.000
    19 C      -1.755161     0.547898     1.752211 C          1 UNL1 0.000
    20 C       0.367373     0.523917     0.509618 C          1 UNL1 0.000
    21 C      -0.329605     0.546868    -0.742498 C          1 UNL1 0.000
    22 C      -1.742594     0.556270    -0.754667 C          1 UNL1 0.000
    23 C      -2.419592     0.552670     0.495557 C          1 UNL1 0.000
    24 C       0.343074     0.559024    -1.993347 C          1 UNL1 0.000
    25 C      -0.335195     0.568878    -3.211781 C          1 UNL1 0.000
    26 C      -1.716993     0.570003    -3.220561 C          1 UNL1 0.000
    27 C      -2.408871     0.565420    -2.011052 C          1 UNL1 0.000
    28 H      -7.466990     4.306270     0.400968 H          1 UNL1 0.000
    29 H      -5.106513     5.036673     0.434061 H          1 UNL1 0.000
    30 H      -3.267419     3.367754     0.475265 H          1 UNL1 0.000
    31 H      -8.037286     1.893967     0.413515 H          1 UNL1 0.000
    32 H      -3.217827    -2.268624     0.539309 H          1 UNL1 0.000
    33 H      -5.026285    -3.971245     0.541582 H          1 UNL1 0.000
    34 H      -7.399244    -3.283859     0.497236 H          1 UNL1 0.000
    35 H      -8.012638    -0.882552     0.451881 H          1 UNL1 0.000
    36 H      -3.523293     0.560351     3.043662 H          1 UNL1 0.000
    37 H      -2.310795     0.556791     5.151918 H          1 UNL1 0.000
    38 H       0.171856     0.558195     5.162813 H          1 UNL1 0.000
    39 H       1.405666     0.563804     3.064478 H          1 UNL1 0.000
    40 H       1.431451     0.575778    -2.034134 H          1 UNL1 0.000
    41 H       0.221159     0.581931    -4.144895 H          1 UNL1 0.000
    42 H      -2.261669     0.580869    -4.160603 H          1 UNL1 0.000
    43 H      -3.496537     0.572583    -2.065340 H          1 UNL1 0.000
    44 C       1.842987     0.454740     0.513615 C          1 UNL1 0.000
    45 N       2.493270     1.644185     0.487109 N          1 UNL1 0.000
    46 C       3.843372     1.611946     0.473367 C          1 UNL1 0.000
    47 C       4.587184     0.444011     0.485252 C          1 UNL1 0.000
    48 C       3.907634    -0.767686     0.514816 C          1 UNL1 0.000
    49 C       2.515652    -0.767094     0.529295 C          1 UNL1 0.000
    50 H       4.327397     2.584196     0.449956 H          1 UNL1 0.000
    51 H       5.670786     0.478737     0.470912 H          1 UNL1 0.000
    52 H       4.455418    -1.705608     0.524143 H          1 UNL1 0.000
    53 H       1.963785    -1.701515     0.548556 H          1 UNL1 0.000
@<TRIPOS>BOND
     1      1      2   2
     2      2      3   1
     3      3      4   2
     4      4      5   1
     5      5      6   2
     6      6      1   1
     7      4      7   1
     8      7      8   1
     9      8      9   2
    10      9     10   1
    11     10     11   2
    12     11     12   1
    13     12     13   2
    14     13      8   1
    15     13      5   1
    16     14     15   2
    17     15     16   1
    18     16     17   2
    19     17     18   1
    20     18     19   2
    21     19     14   1
    22     18     20   1
    23     20     21   2
    24     21     22   1
    25     22     23   2
    26     23     19   1
    27     21     24   1
    28     24     25   2
    29     25     26   1
    30     26     27   2
    31     27     22   1
    32      7     23   1
    33      1     28   1
    34      2     29   1
    35      3     30   1
    36      6     31   1
    37      9     32   1
    38     10     33   1
    39     11     34   1
    40     12     35   1
    41     14     36   1
    42     15     37   1
    43     16     38   1
    44     17     39   1
    45     24     40   1
    46     25     41   1
    47     26     42   1
    48     27     43   1
    49     44     45   2
    50     45     46   1
    51     46     47   2
    52     47     48   1
    53     48     49   2
    54     49     44   1
    55     46     50   1
    56     47     51   1
    57     48     52   1
    58     49     53   1
    59     20     44   1
