# Produced with molli package
@<TRIPOS>MOLECULE
G_4_P
50 54 0 0 0
SMALL
USER_CHARGES

@<TRIPOS>ATOM
     1 C      -5.928293     3.552564     1.821281 C          1 UNL1 0.000
     2 C      -4.595826     3.952757     1.812839 C          1 UNL1 0.000
     3 C      -3.564002     3.010556     1.810200 C          1 UNL1 0.000
     4 C      -3.909966     1.647254     1.814666 C          1 UNL1 0.000
     5 C      -5.239968     1.221769     1.821368 C          1 UNL1 0.000
     6 C      -6.262449     2.194304     1.826921 C          1 UNL1 0.000
     7 N      -3.119726     0.509698     1.802200 N          1 UNL1 0.000
     8 C      -3.907001    -0.629836     1.804780 C          1 UNL1 0.000
     9 C      -3.556541    -1.992784     1.804337 C          1 UNL1 0.000
    10 C      -4.586091    -2.937556     1.820851 C          1 UNL1 0.000
    11 C      -5.919187    -2.541277     1.835822 C          1 UNL1 0.000
    12 C      -6.257767    -1.183850     1.835154 C          1 UNL1 0.000
    13 C      -5.237226    -0.208538     1.821668 C          1 UNL1 0.000
    14 C      -1.711249     0.511486     1.794086 C          1 UNL1 0.000
    15 C      -1.026178     0.603772     3.005378 C          1 UNL1 0.000
    16 C       0.363072     0.590583     2.978541 C          1 UNL1 0.000
    17 C       1.057693     0.540540     1.768155 C          1 UNL1 0.000
    18 C       0.364440     0.453779     0.549653 C          1 UNL1 0.000
    19 C      -1.036936     0.428661     0.570493 C          1 UNL1 0.000
    20 O       1.065626     0.695519     4.147780 O          1 UNL1 0.000
    21 C       1.313738    -0.605758     4.682344 C          1 UNL1 0.000
    22 H      -6.717631     4.300114     1.822439 H          1 UNL1 0.000
    23 H      -4.351926     5.012619     1.806962 H          1 UNL1 0.000
    24 H      -2.525415     3.329494     1.801125 H          1 UNL1 0.000
    25 H      -7.305955     1.892221     1.832487 H          1 UNL1 0.000
    26 H      -2.517698    -2.308518     1.794893 H          1 UNL1 0.000
    27 H      -4.339489    -3.997001     1.822817 H          1 UNL1 0.000
    28 H      -6.706790    -3.290753     1.848931 H          1 UNL1 0.000
    29 H      -7.301564    -0.884605     1.847893 H          1 UNL1 0.000
    30 H      -1.556319     0.678527     3.950442 H          1 UNL1 0.000
    31 H       2.144963     0.570293     1.776097 H          1 UNL1 0.000
    32 H      -1.594837     0.363556    -0.362184 H          1 UNL1 0.000
    33 H       1.943343    -0.489605     5.569504 H          1 UNL1 0.000
    34 H       1.851641    -1.237932     3.966593 H          1 UNL1 0.000
    35 H       0.378994    -1.087869     4.988825 H          1 UNL1 0.000
    36 C       1.098961     0.399927    -0.714948 C          1 UNL1 0.000
    37 C       1.447793     1.579387    -1.390000 C          1 UNL1 0.000
    38 C       2.178901     1.532954    -2.581119 C          1 UNL1 0.000
    39 C       2.576482     0.303142    -3.102870 C          1 UNL1 0.000
    40 C       2.202712    -0.877280    -2.464178 C          1 UNL1 0.000
    41 C       1.477547    -0.829920    -1.271165 C          1 UNL1 0.000
    42 O       3.285375     0.168638    -4.265210 O          1 UNL1 0.000
    43 C       4.424260     1.024494    -4.328048 C          1 UNL1 0.000
    44 H       1.147842     2.545364    -0.988177 H          1 UNL1 0.000
    45 H       2.411682     2.461344    -3.092428 H          1 UNL1 0.000
    46 H       2.490626    -1.835850    -2.886957 H          1 UNL1 0.000
    47 H       1.212022    -1.760197    -0.773982 H          1 UNL1 0.000
    48 H       5.054528     0.679718    -5.153456 H          1 UNL1 0.000
    49 H       5.017275     0.969545    -3.407827 H          1 UNL1 0.000
    50 H       4.132269     2.057301    -4.540874 H          1 UNL1 0.000
@<TRIPOS>BOND
     1      1      2   2
     2      2      3   1
     3      3      4   2
     4      4      5   1
     5      5      6   2
     6      6      1   1
     7      4      7   1
     8      7      8   1
     9      8      9   2
    10      9     10   1
    11     10     11   2
    12     11     12   1
    13     12     13   2
    14     13      8   1
    15     13      5   1
    16     14     15   2
    17     15     16   1
    18     16     17   2
    19     17     18   1
    20     18     19   2
    21     19     14   1
    22     20     21   1
    23     16     20   1
    24      7     14   1
    25      1     22   1
    26      2     23   1
    27      3     24   1
    28      6     25   1
    29      9     26   1
    30     10     27   1
    31     11     28   1
    32     12     29   1
    33     15     30   1
    34     17     31   1
    35     19     32   1
    36     21     33   1
    37     21     34   1
    38     21     35   1
    39     36     37   2
    40     37     38   1
    41     38     39   2
    42     39     40   1
    43     40     41   2
    44     41     36   1
    45     42     43   1
    46     39     42   1
    47     37     44   1
    48     38     45   1
    49     40     46   1
    50     41     47   1
    51     43     48   1
    52     43     49   1
    53     43     50   1
    54     18     36   1
