# Produced with molli package
@<TRIPOS>MOLECULE
G_4_K
48 52 0 0 0
SMALL
USER_CHARGES

@<TRIPOS>ATOM
     1 C      -5.966927     3.605501     1.838708 C          1 UNL1 0.000
     2 C      -4.629084     3.986138     1.856258 C          1 UNL1 0.000
     3 C      -3.610501     3.029427     1.848368 C          1 UNL1 0.000
     4 C      -3.976005     1.671102     1.822310 C          1 UNL1 0.000
     5 C      -5.311638     1.265487     1.804445 C          1 UNL1 0.000
     6 C      -6.320649     2.252408     1.813308 C          1 UNL1 0.000
     7 N      -3.201932     0.522493     1.803912 N          1 UNL1 0.000
     8 C      -4.005693    -0.605445     1.779100 C          1 UNL1 0.000
     9 C      -3.676512    -1.973158     1.760971 C          1 UNL1 0.000
    10 C      -4.720345    -2.902321     1.745215 C          1 UNL1 0.000
    11 C      -6.047650    -2.485983     1.745480 C          1 UNL1 0.000
    12 C      -6.365211    -1.123899     1.762210 C          1 UNL1 0.000
    13 C      -5.330337    -0.164327     1.781086 C          1 UNL1 0.000
    14 C      -1.792899     0.504705     1.801963 C          1 UNL1 0.000
    15 C      -1.111439     0.530765     3.019053 C          1 UNL1 0.000
    16 C       0.277525     0.513377     2.995381 C          1 UNL1 0.000
    17 C       0.975489     0.514437     1.785348 C          1 UNL1 0.000
    18 C       0.287089     0.491977     0.561633 C          1 UNL1 0.000
    19 C      -1.114623     0.480793     0.577245 C          1 UNL1 0.000
    20 O       0.973442     0.580393     4.170679 O          1 UNL1 0.000
    21 C       1.349446    -0.729075     4.598990 C          1 UNL1 0.000
    22 H      -6.745715     4.364187     1.845410 H          1 UNL1 0.000
    23 H      -4.370334     5.042438     1.876989 H          1 UNL1 0.000
    24 H      -2.567873     3.333692     1.862844 H          1 UNL1 0.000
    25 H      -7.368234     1.965605     1.800171 H          1 UNL1 0.000
    26 H      -2.642597    -2.305193     1.762556 H          1 UNL1 0.000
    27 H      -4.490461    -3.965383     1.733642 H          1 UNL1 0.000
    28 H      -6.846635    -3.223341     1.733649 H          1 UNL1 0.000
    29 H      -7.404786    -0.808882     1.763194 H          1 UNL1 0.000
    30 H      -1.643985     0.566526     3.965076 H          1 UNL1 0.000
    31 H       2.062836     0.544001     1.799838 H          1 UNL1 0.000
    32 H      -1.671807     0.467466    -0.358046 H          1 UNL1 0.000
    33 H       2.131678    -0.621890     5.356463 H          1 UNL1 0.000
    34 H       1.754656    -1.337599     3.782055 H          1 UNL1 0.000
    35 H       0.493474    -1.234892     5.057403 H          1 UNL1 0.000
    36 C       1.029141     0.496920    -0.700382 C          1 UNL1 0.000
    37 C       1.259720     1.701500    -1.386579 C          1 UNL1 0.000
    38 C       2.000105     1.719695    -2.571422 C          1 UNL1 0.000
    39 C       2.505632     0.518141    -3.078047 C          1 UNL1 0.000
    40 C       2.279676    -0.694660    -2.418924 C          1 UNL1 0.000
    41 C       1.545270    -0.697851    -1.230179 C          1 UNL1 0.000
    42 N       3.289512     0.530846    -4.311160 N          1 UNL1 0.000
    43 O       3.934095     1.557077    -4.568332 O          1 UNL1 0.000
    44 O       3.260873    -0.487092    -5.017170 O          1 UNL1 0.000
    45 H       0.869442     2.637314    -0.988423 H          1 UNL1 0.000
    46 H       2.173331     2.664881    -3.081458 H          1 UNL1 0.000
    47 H       2.673264    -1.630745    -2.809236 H          1 UNL1 0.000
    48 H       1.377734    -1.640217    -0.710691 H          1 UNL1 0.000
@<TRIPOS>BOND
     1      1      2   2
     2      2      3   1
     3      3      4   2
     4      4      5   1
     5      5      6   2
     6      6      1   1
     7      4      7   1
     8      7      8   1
     9      8      9   2
    10      9     10   1
    11     10     11   2
    12     11     12   1
    13     12     13   2
    14     13      8   1
    15     13      5   1
    16     14     15   2
    17     15     16   1
    18     16     17   2
    19     17     18   1
    20     18     19   2
    21     19     14   1
    22     20     21   1
    23     16     20   1
    24      7     14   1
    25      1     22   1
    26      2     23   1
    27      3     24   1
    28      6     25   1
    29      9     26   1
    30     10     27   1
    31     11     28   1
    32     12     29   1
    33     15     30   1
    34     17     31   1
    35     19     32   1
    36     21     33   1
    37     21     34   1
    38     21     35   1
    39     36     37   2
    40     37     38   1
    41     38     39   2
    42     39     40   1
    43     40     41   2
    44     41     36   1
    45     42     43   2
    46     42     44   1
    47     39     42   1
    48     37     45   1
    49     38     46   1
    50     40     47   1
    51     41     48   1
    52     18     36   1
