# Produced with molli package
@<TRIPOS>MOLECULE
G_4_T
49 53 0 0 0
SMALL
USER_CHARGES

@<TRIPOS>ATOM
     1 C      -5.934700     3.555830     1.835683 C          1 UNL1 0.000
     2 C      -4.603951     3.960046     1.822502 C          1 UNL1 0.000
     3 C      -3.568596     3.021771     1.792637 C          1 UNL1 0.000
     4 C      -3.910684     1.656924     1.775050 C          1 UNL1 0.000
     5 C      -5.238557     1.227831     1.786744 C          1 UNL1 0.000
     6 C      -6.265036     2.196569     1.818812 C          1 UNL1 0.000
     7 N      -3.116568     0.522605     1.741017 N          1 UNL1 0.000
     8 C      -3.900775    -0.619625     1.730162 C          1 UNL1 0.000
     9 C      -3.547970    -1.980886     1.700326 C          1 UNL1 0.000
    10 C      -4.574749    -2.928801     1.704453 C          1 UNL1 0.000
    11 C      -5.909150    -2.536274     1.736591 C          1 UNL1 0.000
    12 C      -6.250301    -1.180171     1.764756 C          1 UNL1 0.000
    13 C      -5.233083    -0.202084     1.762253 C          1 UNL1 0.000
    14 C      -1.707526     0.527496     1.730989 C          1 UNL1 0.000
    15 C      -1.020660     0.550189     2.945460 C          1 UNL1 0.000
    16 C       0.369203     0.542068     2.915979 C          1 UNL1 0.000
    17 C       1.060390     0.551941     1.703248 C          1 UNL1 0.000
    18 C       0.367215     0.527720     0.481877 C          1 UNL1 0.000
    19 C      -1.034617     0.511826     0.503647 C          1 UNL1 0.000
    20 O       1.095924     0.590545     4.073921 O          1 UNL1 0.000
    21 C       1.130562    -0.696735     4.690701 C          1 UNL1 0.000
    22 H      -6.726591     4.300513     1.859009 H          1 UNL1 0.000
    23 H      -4.363249     5.020809     1.835410 H          1 UNL1 0.000
    24 H      -2.531473     3.344012     1.782024 H          1 UNL1 0.000
    25 H      -7.307046     1.891048     1.829064 H          1 UNL1 0.000
    26 H      -2.508098    -2.293916     1.675065 H          1 UNL1 0.000
    27 H      -4.325856    -3.987253     1.682144 H          1 UNL1 0.000
    28 H      -6.694628    -3.287915     1.739614 H          1 UNL1 0.000
    29 H      -7.295227    -0.883750     1.789624 H          1 UNL1 0.000
    30 H      -1.551773     0.579041     3.892250 H          1 UNL1 0.000
    31 H       2.147985     0.579282     1.712002 H          1 UNL1 0.000
    32 H      -1.593554     0.492376    -0.430421 H          1 UNL1 0.000
    33 H       1.916872    -0.681958     5.451400 H          1 UNL1 0.000
    34 H       1.373740    -1.487523     3.971081 H          1 UNL1 0.000
    35 H       0.178769    -0.912173     5.186806 H          1 UNL1 0.000
    36 C       1.104905     0.521543    -0.783072 C          1 UNL1 0.000
    37 C       1.717491    -0.650856    -1.247703 C          1 UNL1 0.000
    38 C       2.450218    -0.653186    -2.438031 C          1 UNL1 0.000
    39 C       2.588214     0.520097    -3.186097 C          1 UNL1 0.000
    40 C       1.973023     1.691899    -2.731375 C          1 UNL1 0.000
    41 C       1.237464     1.691566    -1.542758 C          1 UNL1 0.000
    42 C       3.383696     0.536291    -4.457425 C          1 UNL1 0.000
    43 H       1.627999    -1.574073    -0.678963 H          1 UNL1 0.000
    44 H       2.915289    -1.578070    -2.771154 H          1 UNL1 0.000
    45 H       2.068528     2.616075    -3.297029 H          1 UNL1 0.000
    46 H       0.778152     2.617460    -1.202616 H          1 UNL1 0.000
    47 H       4.203974     1.257226    -4.379285 H          1 UNL1 0.000
    48 H       2.741884     0.809957    -5.300767 H          1 UNL1 0.000
    49 H       3.820429    -0.444953    -4.670585 H          1 UNL1 0.000
@<TRIPOS>BOND
     1      1      2   2
     2      2      3   1
     3      3      4   2
     4      4      5   1
     5      5      6   2
     6      6      1   1
     7      4      7   1
     8      7      8   1
     9      8      9   2
    10      9     10   1
    11     10     11   2
    12     11     12   1
    13     12     13   2
    14     13      8   1
    15     13      5   1
    16     14     15   2
    17     15     16   1
    18     16     17   2
    19     17     18   1
    20     18     19   2
    21     19     14   1
    22     20     21   1
    23     16     20   1
    24      7     14   1
    25      1     22   1
    26      2     23   1
    27      3     24   1
    28      6     25   1
    29      9     26   1
    30     10     27   1
    31     11     28   1
    32     12     29   1
    33     15     30   1
    34     17     31   1
    35     19     32   1
    36     21     33   1
    37     21     34   1
    38     21     35   1
    39     36     37   2
    40     37     38   1
    41     38     39   2
    42     39     40   1
    43     40     41   2
    44     41     36   1
    45     39     42   1
    46     37     43   1
    47     38     44   1
    48     40     45   1
    49     41     46   1
    50     42     47   1
    51     42     48   1
    52     42     49   1
    53     18     36   1
