# Produced with molli package
@<TRIPOS>MOLECULE
G_4_R
47 51 0 0 0
SMALL
USER_CHARGES

@<TRIPOS>ATOM
     1 C      -6.015337     3.515996     1.865841 C          1 UNL1 0.000
     2 C      -4.686178     3.925292     1.890152 C          1 UNL1 0.000
     3 C      -3.647353     2.990667     1.876975 C          1 UNL1 0.000
     4 C      -3.983031     1.624762     1.835556 C          1 UNL1 0.000
     5 C      -5.309389     1.190845     1.807417 C          1 UNL1 0.000
     6 C      -6.339490     2.155773     1.826200 C          1 UNL1 0.000
     7 N      -3.183640     0.493155     1.801714 N          1 UNL1 0.000
     8 C      -3.962558    -0.650494     1.747053 C          1 UNL1 0.000
     9 C      -3.603518    -2.009614     1.697165 C          1 UNL1 0.000
    10 C      -4.626991    -2.960652     1.663026 C          1 UNL1 0.000
    11 C      -5.963158    -2.573717     1.676608 C          1 UNL1 0.000
    12 C      -6.310441    -1.219647     1.723046 C          1 UNL1 0.000
    13 C      -5.296627    -0.238430     1.760050 C          1 UNL1 0.000
    14 C      -1.774459     0.509637     1.812328 C          1 UNL1 0.000
    15 C      -1.103787     0.587931     3.032876 C          1 UNL1 0.000
    16 C       0.284454     0.630990     3.015567 C          1 UNL1 0.000
    17 C       0.988854     0.660755     1.810040 C          1 UNL1 0.000
    18 C       0.314560     0.588330     0.578509 C          1 UNL1 0.000
    19 C      -1.085747     0.489619     0.593283 C          1 UNL1 0.000
    20 O       0.992165     0.708748     4.182974 O          1 UNL1 0.000
    21 C       1.195576    -0.598940     4.722673 C          1 UNL1 0.000
    22 H      -6.810383     4.257566     1.875826 H          1 UNL1 0.000
    23 H      -4.450283     4.986722     1.918490 H          1 UNL1 0.000
    24 H      -2.611672     3.317400     1.893619 H          1 UNL1 0.000
    25 H      -7.380523     1.846553     1.804976 H          1 UNL1 0.000
    26 H      -2.562255    -2.318544     1.685858 H          1 UNL1 0.000
    27 H      -4.373283    -4.017637     1.625077 H          1 UNL1 0.000
    28 H      -6.745641    -3.328066     1.649792 H          1 UNL1 0.000
    29 H      -7.356544    -0.927394     1.731580 H          1 UNL1 0.000
    30 H      -1.644449     0.612252     3.974469 H          1 UNL1 0.000
    31 H       2.074551     0.720728     1.840573 H          1 UNL1 0.000
    32 H      -1.633404     0.426355    -0.346312 H          1 UNL1 0.000
    33 H       2.082287    -0.562663     5.362819 H          1 UNL1 0.000
    34 H       1.373178    -1.354189     3.947176 H          1 UNL1 0.000
    35 H       0.337045    -0.886207     5.337669 H          1 UNL1 0.000
    36 C       1.054602     0.624300    -0.687228 C          1 UNL1 0.000
    37 N       0.812681    -0.401093    -1.544614 N          1 UNL1 0.000
    38 C       1.500435    -0.421791    -2.714086 C          1 UNL1 0.000
    39 C       2.417808     0.553365    -3.066563 C          1 UNL1 0.000
    40 C       2.652439     1.614801    -2.193880 C          1 UNL1 0.000
    41 C       1.958566     1.647326    -0.984842 C          1 UNL1 0.000
    42 N       3.126561     0.456583    -4.329843 N          1 UNL1 0.000
    43 O       4.183047     1.091882    -4.442608 O          1 UNL1 0.000
    44 O       2.629814    -0.255726    -5.213772 O          1 UNL1 0.000
    45 H       1.280725    -1.274379    -3.352165 H          1 UNL1 0.000
    46 H       3.355286     2.407965    -2.436342 H          1 UNL1 0.000
    47 H       2.115840     2.467002    -0.288895 H          1 UNL1 0.000
@<TRIPOS>BOND
     1      1      2   2
     2      2      3   1
     3      3      4   2
     4      4      5   1
     5      5      6   2
     6      6      1   1
     7      4      7   1
     8      7      8   1
     9      8      9   2
    10      9     10   1
    11     10     11   2
    12     11     12   1
    13     12     13   2
    14     13      8   1
    15     13      5   1
    16     14     15   2
    17     15     16   1
    18     16     17   2
    19     17     18   1
    20     18     19   2
    21     19     14   1
    22     20     21   1
    23     16     20   1
    24      7     14   1
    25      1     22   1
    26      2     23   1
    27      3     24   1
    28      6     25   1
    29      9     26   1
    30     10     27   1
    31     11     28   1
    32     12     29   1
    33     15     30   1
    34     17     31   1
    35     19     32   1
    36     21     33   1
    37     21     34   1
    38     21     35   1
    39     36     37   2
    40     37     38   1
    41     38     39   2
    42     39     40   1
    43     40     41   2
    44     41     36   1
    45     42     43   2
    46     42     44   1
    47     39     42   1
    48     38     45   1
    49     40     46   1
    50     41     47   1
    51     18     36   1
