# Produced with molli package
@<TRIPOS>MOLECULE
G_4_L
50 55 0 0 0
SMALL
USER_CHARGES

@<TRIPOS>ATOM
     1 C      -5.904947     3.462288     1.673077 C          1 UNL1 0.000
     2 C      -4.569639     3.851763     1.661784 C          1 UNL1 0.000
     3 C      -3.545022     2.902809     1.709775 C          1 UNL1 0.000
     4 C      -3.901487     1.543116     1.770951 C          1 UNL1 0.000
     5 C      -5.234266     1.128850     1.785928 C          1 UNL1 0.000
     6 C      -6.249754     2.107923     1.733691 C          1 UNL1 0.000
     7 N      -3.118917     0.401499     1.836258 N          1 UNL1 0.000
     8 C      -3.915354    -0.730908     1.886953 C          1 UNL1 0.000
     9 C      -3.577455    -2.095334     1.944556 C          1 UNL1 0.000
    10 C      -4.615355    -3.031127     1.968709 C          1 UNL1 0.000
    11 C      -5.945362    -2.624462     1.938335 C          1 UNL1 0.000
    12 C      -6.271688    -1.265631     1.881599 C          1 UNL1 0.000
    13 C      -5.243027    -0.299647     1.852150 C          1 UNL1 0.000
    14 C      -1.709613     0.395394     1.824502 C          1 UNL1 0.000
    15 C      -1.016740     0.365226     3.035443 C          1 UNL1 0.000
    16 C       0.372969     0.401189     2.998600 C          1 UNL1 0.000
    17 C       1.056771     0.487328     1.784211 C          1 UNL1 0.000
    18 C       0.358460     0.496968     0.565928 C          1 UNL1 0.000
    19 C      -1.042507     0.455704     0.595141 C          1 UNL1 0.000
    20 O       1.108376     0.427579     4.151639 O          1 UNL1 0.000
    21 C       1.177919    -0.875105     4.730692 C          1 UNL1 0.000
    22 H      -6.688435     4.215102     1.635300 H          1 UNL1 0.000
    23 H      -4.317028     4.908740     1.616206 H          1 UNL1 0.000
    24 H      -2.504143     3.213891     1.703890 H          1 UNL1 0.000
    25 H      -7.295400     1.814240     1.742167 H          1 UNL1 0.000
    26 H      -2.541236    -2.419750     1.962766 H          1 UNL1 0.000
    27 H      -4.378397    -4.091890     2.008852 H          1 UNL1 0.000
    28 H      -6.739511    -3.366837     1.955769 H          1 UNL1 0.000
    29 H      -7.313048    -0.957833     1.854615 H          1 UNL1 0.000
    30 H      -1.542860     0.342441     3.985097 H          1 UNL1 0.000
    31 H       2.143760     0.534245     1.789845 H          1 UNL1 0.000
    32 H      -1.606955     0.480340    -0.335646 H          1 UNL1 0.000
    33 H       2.028455    -0.889099     5.419053 H          1 UNL1 0.000
    34 H       1.343035    -1.654741     3.977467 H          1 UNL1 0.000
    35 H       0.269367    -1.085246     5.303569 H          1 UNL1 0.000
    36 C       1.087232     0.545081    -0.705024 C          1 UNL1 0.000
    37 C       1.158708    -0.589280    -1.526634 C          1 UNL1 0.000
    38 C       1.872167    -0.585582    -2.731255 C          1 UNL1 0.000
    39 C       2.514573     0.601118    -3.096184 C          1 UNL1 0.000
    40 C       2.464339     1.754746    -2.314873 C          1 UNL1 0.000
    41 C       1.743254     1.723894    -1.104968 C          1 UNL1 0.000
    42 N       3.279560     0.895170    -4.202277 N          1 UNL1 0.000
    43 C       3.708700     2.194747    -4.149833 C          1 UNL1 0.000
    44 C       3.217768     2.753076    -2.991529 C          1 UNL1 0.000
    45 H       0.659937    -1.507776    -1.220563 H          1 UNL1 0.000
    46 H       1.923684    -1.475661    -3.349502 H          1 UNL1 0.000
    47 H       1.697061     2.614899    -0.484191 H          1 UNL1 0.000
    48 H       3.490311     0.240612    -4.943222 H          1 UNL1 0.000
    49 H       4.323876     2.608545    -4.937114 H          1 UNL1 0.000
    50 H       3.382382     3.770350    -2.661865 H          1 UNL1 0.000
@<TRIPOS>BOND
     1      1      2   2
     2      2      3   1
     3      3      4   2
     4      4      5   1
     5      5      6   2
     6      6      1   1
     7      4      7   1
     8      7      8   1
     9      8      9   2
    10      9     10   1
    11     10     11   2
    12     11     12   1
    13     12     13   2
    14     13      8   1
    15     13      5   1
    16     14     15   2
    17     15     16   1
    18     16     17   2
    19     17     18   1
    20     18     19   2
    21     19     14   1
    22     20     21   1
    23     16     20   1
    24      7     14   1
    25      1     22   1
    26      2     23   1
    27      3     24   1
    28      6     25   1
    29      9     26   1
    30     10     27   1
    31     11     28   1
    32     12     29   1
    33     15     30   1
    34     17     31   1
    35     19     32   1
    36     21     33   1
    37     21     34   1
    38     21     35   1
    39     36     37   2
    40     37     38   1
    41     38     39   2
    42     39     40   1
    43     40     41   2
    44     41     36   1
    45     39     42   1
    46     42     43   1
    47     43     44   2
    48     44     40   1
    49     37     45   1
    50     38     46   1
    51     41     47   1
    52     42     48   1
    53     43     49   1
    54     44     50   1
    55     18     36   1
