# Produced with molli package
@<TRIPOS>MOLECULE
G_4_Q
44 48 0 0 0
SMALL
USER_CHARGES

@<TRIPOS>ATOM
     1 C      -6.013254     3.467990     1.913519 C          1 UNL1 0.000
     2 C      -4.683762     3.875686     1.942121 C          1 UNL1 0.000
     3 C      -3.646317     2.940048     1.922472 C          1 UNL1 0.000
     4 C      -3.983680     1.574927     1.869805 C          1 UNL1 0.000
     5 C      -5.310143     1.142495     1.835978 C          1 UNL1 0.000
     6 C      -6.339099     2.108409     1.862992 C          1 UNL1 0.000
     7 N      -3.184873     0.443695     1.818581 N          1 UNL1 0.000
     8 C      -3.964679    -0.699299     1.756185 C          1 UNL1 0.000
     9 C      -3.607221    -2.058867     1.703095 C          1 UNL1 0.000
    10 C      -4.631612    -3.009132     1.671705 C          1 UNL1 0.000
    11 C      -5.967381    -2.621045     1.689220 C          1 UNL1 0.000
    12 C      -6.313184    -1.266726     1.739058 C          1 UNL1 0.000
    13 C      -5.298512    -0.286400     1.777303 C          1 UNL1 0.000
    14 C      -1.775788     0.460215     1.835346 C          1 UNL1 0.000
    15 C      -1.113429     0.611064     3.051650 C          1 UNL1 0.000
    16 C       0.274610     0.642991     3.042306 C          1 UNL1 0.000
    17 C       0.989149     0.604983     1.841483 C          1 UNL1 0.000
    18 C       0.324661     0.475750     0.607112 C          1 UNL1 0.000
    19 C      -1.077980     0.373641     0.624632 C          1 UNL1 0.000
    20 O       0.956715     0.784071     4.219998 O          1 UNL1 0.000
    21 C       1.255579    -0.503891     4.762728 C          1 UNL1 0.000
    22 H      -6.807181     4.210590     1.927501 H          1 UNL1 0.000
    23 H      -4.445956     4.936484     1.977026 H          1 UNL1 0.000
    24 H      -2.610163     3.265630     1.938632 H          1 UNL1 0.000
    25 H      -7.380377     1.800646     1.837915 H          1 UNL1 0.000
    26 H      -2.566298    -2.369002     1.691668 H          1 UNL1 0.000
    27 H      -4.378906    -4.066362     1.634289 H          1 UNL1 0.000
    28 H      -6.750644    -3.374634     1.664928 H          1 UNL1 0.000
    29 H      -7.358938    -0.973486     1.753245 H          1 UNL1 0.000
    30 H      -1.659176     0.688641     3.987536 H          1 UNL1 0.000
    31 H       2.074503     0.664171     1.883771 H          1 UNL1 0.000
    32 H      -1.623490     0.267142    -0.312990 H          1 UNL1 0.000
    33 H       1.825905    -0.355609     5.684494 H          1 UNL1 0.000
    34 H       1.872495    -1.092400     4.074116 H          1 UNL1 0.000
    35 H       0.338966    -1.049127     5.013666 H          1 UNL1 0.000
    36 C       1.060795     0.463268    -0.665622 C          1 UNL1 0.000
    37 N       0.628186    -0.416503    -1.606879 N          1 UNL1 0.000
    38 C       1.308057    -0.420258    -2.777677 C          1 UNL1 0.000
    39 C       2.378208     0.422293    -3.021296 C          1 UNL1 0.000
    40 N       2.819426     1.309953    -2.105236 N          1 UNL1 0.000
    41 C       2.137513     1.310763    -0.931780 C          1 UNL1 0.000
    42 H       0.964636    -1.128444    -3.523032 H          1 UNL1 0.000
    43 H       2.910371     0.406754    -3.965416 H          1 UNL1 0.000
    44 H       2.480777     2.040592    -0.205767 H          1 UNL1 0.000
@<TRIPOS>BOND
     1      1      2   2
     2      2      3   1
     3      3      4   2
     4      4      5   1
     5      5      6   2
     6      6      1   1
     7      4      7   1
     8      7      8   1
     9      8      9   2
    10      9     10   1
    11     10     11   2
    12     11     12   1
    13     12     13   2
    14     13      8   1
    15     13      5   1
    16     14     15   2
    17     15     16   1
    18     16     17   2
    19     17     18   1
    20     18     19   2
    21     19     14   1
    22     20     21   1
    23     16     20   1
    24      7     14   1
    25      1     22   1
    26      2     23   1
    27      3     24   1
    28      6     25   1
    29      9     26   1
    30     10     27   1
    31     11     28   1
    32     12     29   1
    33     15     30   1
    34     17     31   1
    35     19     32   1
    36     21     33   1
    37     21     34   1
    38     21     35   1
    39     36     37   2
    40     37     38   1
    41     38     39   2
    42     39     40   1
    43     40     41   2
    44     41     36   1
    45     38     42   1
    46     39     43   1
    47     41     44   1
    48     18     36   1
