# Produced with molli package
@<TRIPOS>MOLECULE
G_4_O
45 49 0 0 0
SMALL
USER_CHARGES

@<TRIPOS>ATOM
     1 C      -5.928253     3.433172     1.892339 C          1 UNL1 0.000
     2 C      -4.598301     3.840935     1.882884 C          1 UNL1 0.000
     3 C      -3.561477     2.904490     1.869655 C          1 UNL1 0.000
     4 C      -3.899722     1.538836     1.864557 C          1 UNL1 0.000
     5 C      -5.226708     1.105965     1.873097 C          1 UNL1 0.000
     6 C      -6.254807     2.072850     1.888801 C          1 UNL1 0.000
     7 N      -3.101875     0.405943     1.842512 N          1 UNL1 0.000
     8 C      -3.882164    -0.737918     1.837933 C          1 UNL1 0.000
     9 C      -3.524597    -2.098366     1.819763 C          1 UNL1 0.000
    10 C      -4.549239    -3.048834     1.829063 C          1 UNL1 0.000
    11 C      -5.884718    -2.660288     1.853989 C          1 UNL1 0.000
    12 C      -6.230473    -1.305009     1.869392 C          1 UNL1 0.000
    13 C      -5.215398    -0.324189     1.862338 C          1 UNL1 0.000
    14 C      -1.693201     0.423431     1.832237 C          1 UNL1 0.000
    15 C      -1.005949     0.507577     3.042290 C          1 UNL1 0.000
    16 C       0.382219     0.562284     3.007053 C          1 UNL1 0.000
    17 C       1.070033     0.596309     1.791839 C          1 UNL1 0.000
    18 C       0.378279     0.516457     0.569908 C          1 UNL1 0.000
    19 C      -1.021621     0.409578     0.604601 C          1 UNL1 0.000
    20 O       1.100800     0.654299     4.167901 O          1 UNL1 0.000
    21 C       1.273183    -0.644938     4.737026 C          1 UNL1 0.000
    22 H      -6.721761     4.176226     1.901277 H          1 UNL1 0.000
    23 H      -4.359975     4.902085     1.884274 H          1 UNL1 0.000
    24 H      -2.524804     3.229080     1.859696 H          1 UNL1 0.000
    25 H      -7.296422     1.764874     1.894859 H          1 UNL1 0.000
    26 H      -2.483725    -2.407983     1.797330 H          1 UNL1 0.000
    27 H      -4.296549    -4.106673     1.815059 H          1 UNL1 0.000
    28 H      -6.668022    -3.414202     1.860023 H          1 UNL1 0.000
    29 H      -7.275881    -1.011336     1.887219 H          1 UNL1 0.000
    30 H      -1.534399     0.532419     3.990711 H          1 UNL1 0.000
    31 H       2.155370     0.666332     1.803698 H          1 UNL1 0.000
    32 H      -1.579850     0.343508    -0.328527 H          1 UNL1 0.000
    33 H       1.962979    -0.552081     5.581185 H          1 UNL1 0.000
    34 H       1.713845    -1.343770     4.016430 H          1 UNL1 0.000
    35 H       0.322755    -1.036106     5.115376 H          1 UNL1 0.000
    36 C       1.094604     0.553756    -0.710284 C          1 UNL1 0.000
    37 N       0.843682    -0.475745    -1.556136 N          1 UNL1 0.000
    38 C       1.496068    -0.481716    -2.739474 C          1 UNL1 0.000
    39 C       2.384029     0.503302    -3.136780 C          1 UNL1 0.000
    40 C       2.621033     1.560447    -2.268121 C          1 UNL1 0.000
    41 C       1.972616     1.587101    -1.036162 C          1 UNL1 0.000
    42 H       1.278170    -1.330202    -3.381744 H          1 UNL1 0.000
    43 H       2.876379     0.448792    -4.101075 H          1 UNL1 0.000
    44 H       3.302746     2.359189    -2.545731 H          1 UNL1 0.000
    45 H       2.140278     2.410949    -0.349636 H          1 UNL1 0.000
@<TRIPOS>BOND
     1      1      2   2
     2      2      3   1
     3      3      4   2
     4      4      5   1
     5      5      6   2
     6      6      1   1
     7      4      7   1
     8      7      8   1
     9      8      9   2
    10      9     10   1
    11     10     11   2
    12     11     12   1
    13     12     13   2
    14     13      8   1
    15     13      5   1
    16     14     15   2
    17     15     16   1
    18     16     17   2
    19     17     18   1
    20     18     19   2
    21     19     14   1
    22     20     21   1
    23     16     20   1
    24      7     14   1
    25      1     22   1
    26      2     23   1
    27      3     24   1
    28      6     25   1
    29      9     26   1
    30     10     27   1
    31     11     28   1
    32     12     29   1
    33     15     30   1
    34     17     31   1
    35     19     32   1
    36     21     33   1
    37     21     34   1
    38     21     35   1
    39     36     37   2
    40     37     38   1
    41     38     39   2
    42     39     40   1
    43     40     41   2
    44     41     36   1
    45     38     42   1
    46     39     43   1
    47     40     44   1
    48     41     45   1
    49     18     36   1
