# Produced with molli package
@<TRIPOS>MOLECULE
G_4_M
47 51 0 0 0
SMALL
USER_CHARGES

@<TRIPOS>ATOM
     1 C      -5.931523     3.550115     1.820480 C          1 UNL1 0.000
     2 C      -4.593621     3.929745     1.847696 C          1 UNL1 0.000
     3 C      -3.575648     2.972319     1.845632 C          1 UNL1 0.000
     4 C      -3.941563     1.613987     1.820074 C          1 UNL1 0.000
     5 C      -5.277335     1.209684     1.797684 C          1 UNL1 0.000
     6 C      -6.285808     2.197257     1.795345 C          1 UNL1 0.000
     7 N      -3.167390     0.464668     1.802579 N          1 UNL1 0.000
     8 C      -3.972677    -0.662751     1.797352 C          1 UNL1 0.000
     9 C      -3.646699    -2.031253     1.808125 C          1 UNL1 0.000
    10 C      -4.692950    -2.958426     1.814612 C          1 UNL1 0.000
    11 C      -6.019573    -2.539956     1.803167 C          1 UNL1 0.000
    12 C      -6.334125    -1.177472     1.788331 C          1 UNL1 0.000
    13 C      -5.297138    -0.219957     1.791140 C          1 UNL1 0.000
    14 C      -1.757549     0.450105     1.795058 C          1 UNL1 0.000
    15 C      -1.070722     0.539083     3.006377 C          1 UNL1 0.000
    16 C       0.318319     0.559056     2.974103 C          1 UNL1 0.000
    17 C       1.010612     0.532498     1.761660 C          1 UNL1 0.000
    18 C       0.318053     0.452369     0.542799 C          1 UNL1 0.000
    19 C      -1.083557     0.401971     0.567825 C          1 UNL1 0.000
    20 O       1.031286     0.695711     4.131814 O          1 UNL1 0.000
    21 C       1.284252    -0.578600     4.723959 C          1 UNL1 0.000
    22 H      -6.709862     4.309276     1.821024 H          1 UNL1 0.000
    23 H      -4.334210     4.985810     1.870907 H          1 UNL1 0.000
    24 H      -2.532953     3.276136     1.865513 H          1 UNL1 0.000
    25 H      -7.333484     1.911036     1.776686 H          1 UNL1 0.000
    26 H      -2.613604    -2.365558     1.819491 H          1 UNL1 0.000
    27 H      -4.465605    -4.021991     1.830791 H          1 UNL1 0.000
    28 H      -6.820254    -3.275576     1.809184 H          1 UNL1 0.000
    29 H      -7.373030    -0.860112     1.783098 H          1 UNL1 0.000
    30 H      -1.599969     0.603390     3.952601 H          1 UNL1 0.000
    31 H       2.096719     0.594012     1.770553 H          1 UNL1 0.000
    32 H      -1.644198     0.349849    -0.364119 H          1 UNL1 0.000
    33 H       2.295554    -0.559362     5.141647 H          1 UNL1 0.000
    34 H       1.226828    -1.411928     4.013021 H          1 UNL1 0.000
    35 H       0.575531    -0.742429     5.541203 H          1 UNL1 0.000
    36 C       1.054354     0.463246    -0.723542 C          1 UNL1 0.000
    37 C       1.156981     1.643519    -1.475949 C          1 UNL1 0.000
    38 C       1.888684     1.672428    -2.667134 C          1 UNL1 0.000
    39 C       2.526376     0.516487    -3.125331 C          1 UNL1 0.000
    40 C       2.427047    -0.666840    -2.387515 C          1 UNL1 0.000
    41 C       1.697194    -0.691275    -1.194233 C          1 UNL1 0.000
    42 C       3.282739     0.546159    -4.343149 C          1 UNL1 0.000
    43 N       3.896377     0.570762    -5.327611 N          1 UNL1 0.000
    44 H       0.675182     2.555364    -1.126064 H          1 UNL1 0.000
    45 H       1.959913     2.603316    -3.226756 H          1 UNL1 0.000
    46 H       2.918475    -1.575211    -2.731339 H          1 UNL1 0.000
    47 H       1.633898    -1.619353    -0.628664 H          1 UNL1 0.000
@<TRIPOS>BOND
     1      1      2   2
     2      2      3   1
     3      3      4   2
     4      4      5   1
     5      5      6   2
     6      6      1   1
     7      4      7   1
     8      7      8   1
     9      8      9   2
    10      9     10   1
    11     10     11   2
    12     11     12   1
    13     12     13   2
    14     13      8   1
    15     13      5   1
    16     14     15   2
    17     15     16   1
    18     16     17   2
    19     17     18   1
    20     18     19   2
    21     19     14   1
    22     20     21   1
    23     16     20   1
    24      7     14   1
    25      1     22   1
    26      2     23   1
    27      3     24   1
    28      6     25   1
    29      9     26   1
    30     10     27   1
    31     11     28   1
    32     12     29   1
    33     15     30   1
    34     17     31   1
    35     19     32   1
    36     21     33   1
    37     21     34   1
    38     21     35   1
    39     36     37   2
    40     37     38   1
    41     38     39   2
    42     39     40   1
    43     40     41   2
    44     41     36   1
    45     42     43   3
    46     39     42   1
    47     37     44   1
    48     38     45   1
    49     40     46   1
    50     41     47   1
    51     18     36   1
