# Produced with molli package
@<TRIPOS>MOLECULE
G_4_S
51 55 0 0 0
SMALL
USER_CHARGES

@<TRIPOS>ATOM
     1 C      -5.950209     3.532244     1.818344 C          1 UNL1 0.000
     2 C      -4.614010     3.918032     1.846424 C          1 UNL1 0.000
     3 C      -3.591810     2.965126     1.855827 C          1 UNL1 0.000
     4 C      -3.951997     1.605236     1.839976 C          1 UNL1 0.000
     5 C      -5.285982     1.194482     1.817488 C          1 UNL1 0.000
     6 C      -6.298631     2.177639     1.802975 C          1 UNL1 0.000
     7 N      -3.173563     0.459345     1.844439 N          1 UNL1 0.000
     8 C      -3.973367    -0.671728     1.845199 C          1 UNL1 0.000
     9 C      -3.639349    -2.038254     1.862145 C          1 UNL1 0.000
    10 C      -4.679743    -2.971341     1.851693 C          1 UNL1 0.000
    11 C      -6.008297    -2.560012     1.822201 C          1 UNL1 0.000
    12 C      -6.330672    -1.199072     1.805692 C          1 UNL1 0.000
    13 C      -5.299401    -0.235549     1.819477 C          1 UNL1 0.000
    14 C      -1.764439     0.446577     1.841249 C          1 UNL1 0.000
    15 C      -1.083334     0.425241     3.058076 C          1 UNL1 0.000
    16 C       0.305327     0.415840     3.033419 C          1 UNL1 0.000
    17 C       1.002720     0.466759     1.823909 C          1 UNL1 0.000
    18 C       0.316518     0.479427     0.597565 C          1 UNL1 0.000
    19 C      -1.085942     0.466778     0.615794 C          1 UNL1 0.000
    20 O       0.998113     0.429722     4.212790 O          1 UNL1 0.000
    21 C       1.402571    -0.895220     4.561349 C          1 UNL1 0.000
    22 H      -6.731845     4.287946     1.810733 H          1 UNL1 0.000
    23 H      -4.359332     4.975366     1.862313 H          1 UNL1 0.000
    24 H      -2.550444     3.273141     1.879550 H          1 UNL1 0.000
    25 H      -7.344940     1.886621     1.783810 H          1 UNL1 0.000
    26 H      -2.604338    -2.366325     1.883705 H          1 UNL1 0.000
    27 H      -4.445968    -4.033519     1.866038 H          1 UNL1 0.000
    28 H      -6.804442    -3.300433     1.812772 H          1 UNL1 0.000
    29 H      -7.371144    -0.887875     1.784006 H          1 UNL1 0.000
    30 H      -1.615502     0.419714     4.004880 H          1 UNL1 0.000
    31 H       2.090304     0.485170     1.840294 H          1 UNL1 0.000
    32 H      -1.644642     0.485212    -0.318610 H          1 UNL1 0.000
    33 H       2.107552    -0.821884     5.394801 H          1 UNL1 0.000
    34 H       1.911936    -1.403649     3.734620 H          1 UNL1 0.000
    35 H       0.539412    -1.482119     4.892784 H          1 UNL1 0.000
    36 C       1.063031     0.492352    -0.664751 C          1 UNL1 0.000
    37 C       1.055048    -0.620967    -1.513883 C          1 UNL1 0.000
    38 C       1.813408    -0.628677    -2.689508 C          1 UNL1 0.000
    39 C       2.593352     0.479913    -3.050828 C          1 UNL1 0.000
    40 C       2.594424     1.599805    -2.214094 C          1 UNL1 0.000
    41 C       1.836497     1.602376    -1.034320 C          1 UNL1 0.000
    42 C       3.394571     0.382656    -4.311546 C          1 UNL1 0.000
    43 C       4.167298     1.563287    -4.842769 C          1 UNL1 0.000
    44 O       3.417353    -0.685052    -4.925821 O          1 UNL1 0.000
    45 H       0.474095    -1.504422    -1.255141 H          1 UNL1 0.000
    46 H       1.797500    -1.517306    -3.319278 H          1 UNL1 0.000
    47 H       3.179020     2.486612    -2.430689 H          1 UNL1 0.000
    48 H       1.857563     2.484325    -0.395250 H          1 UNL1 0.000
    49 H       5.224794     1.290077    -4.905483 H          1 UNL1 0.000
    50 H       4.087800     2.462570    -4.236551 H          1 UNL1 0.000
    51 H       3.792152     1.802742    -5.842165 H          1 UNL1 0.000
@<TRIPOS>BOND
     1      1      2   2
     2      2      3   1
     3      3      4   2
     4      4      5   1
     5      5      6   2
     6      6      1   1
     7      4      7   1
     8      7      8   1
     9      8      9   2
    10      9     10   1
    11     10     11   2
    12     11     12   1
    13     12     13   2
    14     13      8   1
    15     13      5   1
    16     14     15   2
    17     15     16   1
    18     16     17   2
    19     17     18   1
    20     18     19   2
    21     19     14   1
    22     20     21   1
    23     16     20   1
    24      7     14   1
    25      1     22   1
    26      2     23   1
    27      3     24   1
    28      6     25   1
    29      9     26   1
    30     10     27   1
    31     11     28   1
    32     12     29   1
    33     15     30   1
    34     17     31   1
    35     19     32   1
    36     21     33   1
    37     21     34   1
    38     21     35   1
    39     36     37   2
    40     37     38   1
    41     38     39   2
    42     39     40   1
    43     40     41   2
    44     41     36   1
    45     39     42   1
    46     42     43   1
    47     42     44   2
    48     37     45   1
    49     38     46   1
    50     40     47   1
    51     41     48   1
    52     43     49   1
    53     43     50   1
    54     43     51   1
    55     18     36   1
