# Produced with molli package
@<TRIPOS>MOLECULE
G_4_N
43 47 0 0 0
SMALL
USER_CHARGES

@<TRIPOS>ATOM
     1 C      -5.996347     3.501394     1.831059 C          1 UNL1 0.000
     2 C      -4.667991     3.915378     1.847452 C          1 UNL1 0.000
     3 C      -3.626789     2.983871     1.832588 C          1 UNL1 0.000
     4 C      -3.957986     1.617586     1.798783 C          1 UNL1 0.000
     5 C      -5.283826     1.178420     1.778720 C          1 UNL1 0.000
     6 C      -6.315935     2.140128     1.798408 C          1 UNL1 0.000
     7 N      -3.155694     0.488604     1.761245 N          1 UNL1 0.000
     8 C      -3.930755    -0.658096     1.720748 C          1 UNL1 0.000
     9 C      -3.566043    -2.017107     1.682765 C          1 UNL1 0.000
    10 C      -4.586527    -2.971825     1.660351 C          1 UNL1 0.000
    11 C      -5.923513    -2.589626     1.673312 C          1 UNL1 0.000
    12 C      -6.276224    -1.236274     1.710278 C          1 UNL1 0.000
    13 C      -5.265080    -0.251134     1.737416 C          1 UNL1 0.000
    14 C      -1.747179     0.509329     1.745085 C          1 UNL1 0.000
    15 C      -1.053874     0.617638     2.950790 C          1 UNL1 0.000
    16 C       0.336287     0.661570     2.912550 C          1 UNL1 0.000
    17 C       1.020919     0.659117     1.695563 C          1 UNL1 0.000
    18 C       0.314259     0.549886     0.490351 C          1 UNL1 0.000
    19 C      -1.082539     0.462636     0.514908 C          1 UNL1 0.000
    20 O       1.063820     0.781919     4.065195 O          1 UNL1 0.000
    21 C       1.127464    -0.473706     4.743585 C          1 UNL1 0.000
    22 H      -6.793207     4.240791     1.841221 H          1 UNL1 0.000
    23 H      -4.435124     4.977436     1.869613 H          1 UNL1 0.000
    24 H      -2.591513     3.314427     1.840841 H          1 UNL1 0.000
    25 H      -7.356563     1.827625     1.782919 H          1 UNL1 0.000
    26 H      -2.524388    -2.322600     1.675983 H          1 UNL1 0.000
    27 H      -4.329393    -4.028606     1.633718 H          1 UNL1 0.000
    28 H      -6.703776    -3.346802     1.655645 H          1 UNL1 0.000
    29 H      -7.322885    -0.947876     1.720750 H          1 UNL1 0.000
    30 H      -1.580806     0.672034     3.899298 H          1 UNL1 0.000
    31 H       2.105712     0.730859     1.696984 H          1 UNL1 0.000
    32 H      -1.649320     0.401020    -0.411836 H          1 UNL1 0.000
    33 H       1.815714    -0.364368     5.587037 H          1 UNL1 0.000
    34 H       1.518270    -1.260664     4.088129 H          1 UNL1 0.000
    35 H       0.147532    -0.759179     5.140461 H          1 UNL1 0.000
    36 C       1.033274     0.563279    -0.775052 C          1 UNL1 0.000
    37 C       0.875781    -0.437787    -1.713485 C          1 UNL1 0.000
    38 S       1.837607    -0.184328    -3.107429 S          1 UNL1 0.000
    39 C       2.476616     1.267484    -2.469688 C          1 UNL1 0.000
    40 C       1.972392     1.548154    -1.218735 C          1 UNL1 0.000
    41 H       0.248016    -1.316851    -1.654135 H          1 UNL1 0.000
    42 H       3.190155     1.845399    -3.040782 H          1 UNL1 0.000
    43 H       2.253636     2.428186    -0.652614 H          1 UNL1 0.000
@<TRIPOS>BOND
     1      1      2   2
     2      2      3   1
     3      3      4   2
     4      4      5   1
     5      5      6   2
     6      6      1   1
     7      4      7   1
     8      7      8   1
     9      8      9   2
    10      9     10   1
    11     10     11   2
    12     11     12   1
    13     12     13   2
    14     13      8   1
    15     13      5   1
    16     14     15   2
    17     15     16   1
    18     16     17   2
    19     17     18   1
    20     18     19   2
    21     19     14   1
    22     20     21   1
    23     16     20   1
    24      7     14   1
    25      1     22   1
    26      2     23   1
    27      3     24   1
    28      6     25   1
    29      9     26   1
    30     10     27   1
    31     11     28   1
    32     12     29   1
    33     15     30   1
    34     17     31   1
    35     19     32   1
    36     21     33   1
    37     21     34   1
    38     21     35   1
    39     36     37   2
    40     37     38   1
    41     38     39   1
    42     39     40   2
    43     40     36   1
    44     37     41   1
    45     39     42   1
    46     40     43   1
    47     18     36   1
