# Produced with molli package
@<TRIPOS>MOLECULE
G_5_T
51 56 0 0 0
SMALL
USER_CHARGES

@<TRIPOS>ATOM
     1 C      -8.140372     3.599194     2.980722 C          1 UNL1 0.000
     2 C      -6.801868     3.977746     2.963935 C          1 UNL1 0.000
     3 C      -5.784924     3.019323     2.964245 C          1 UNL1 0.000
     4 C      -6.152855     1.661626     2.983759 C          1 UNL1 0.000
     5 C      -7.489182     1.257890     3.004212 C          1 UNL1 0.000
     6 C      -8.496460     2.246555     2.999254 C          1 UNL1 0.000
     7 N      -5.380640     0.512001     3.007125 N          1 UNL1 0.000
     8 C      -6.186610    -0.614573     3.035161 C          1 UNL1 0.000
     9 C      -5.858259    -1.982626     3.051726 C          1 UNL1 0.000
    10 C      -6.902344    -2.911126     3.065113 C          1 UNL1 0.000
    11 C      -8.229235    -2.493593     3.063984 C          1 UNL1 0.000
    12 C      -8.545882    -1.131021     3.047196 C          1 UNL1 0.000
    13 C      -7.510368    -0.172016     3.028746 C          1 UNL1 0.000
    14 C      -3.971739     0.489453     3.019274 C          1 UNL1 0.000
    15 C      -3.306778     0.361796     4.237509 C          1 UNL1 0.000
    16 C      -1.913251     0.325816     4.243429 C          1 UNL1 0.000
    17 C      -1.186152     0.396816     3.042129 C          1 UNL1 0.000
    18 C      -1.875619     0.519376     1.810647 C          1 UNL1 0.000
    19 C      -3.277245     0.575329     1.810150 C          1 UNL1 0.000
    20 C       0.213995     0.339316     3.038062 C          1 UNL1 0.000
    21 C       0.927060     0.384167     1.837342 C          1 UNL1 0.000
    22 C       0.260696     0.495549     0.610524 C          1 UNL1 0.000
    23 C      -1.141083     0.570388     0.613189 C          1 UNL1 0.000
    24 H      -8.917808     4.359191     2.981850 H          1 UNL1 0.000
    25 H      -6.540984     5.033615     2.953089 H          1 UNL1 0.000
    26 H      -4.741439     3.321240     2.956558 H          1 UNL1 0.000
    27 H      -9.544330     1.961181     3.014889 H          1 UNL1 0.000
    28 H      -4.823964    -2.314866     3.047355 H          1 UNL1 0.000
    29 H      -6.672003    -3.974099     3.074175 H          1 UNL1 0.000
    30 H      -9.028369    -3.230678     3.073845 H          1 UNL1 0.000
    31 H      -9.585138    -0.815406     3.044273 H          1 UNL1 0.000
    32 H      -3.856897     0.297837     5.173065 H          1 UNL1 0.000
    33 H      -1.394108     0.233193     5.195246 H          1 UNL1 0.000
    34 H      -3.824430     0.664734     0.873670 H          1 UNL1 0.000
    35 H       0.765490     0.251485     3.971673 H          1 UNL1 0.000
    36 H       2.013898     0.333099     1.863069 H          1 UNL1 0.000
    37 H      -1.665648     0.651662    -0.338108 H          1 UNL1 0.000
    38 C       1.013012     0.520799    -0.647387 C          1 UNL1 0.000
    39 C       1.149875     1.707014    -1.381466 C          1 UNL1 0.000
    40 C       1.876909     1.730962    -2.575869 C          1 UNL1 0.000
    41 C       2.479361     0.566317    -3.062432 C          1 UNL1 0.000
    42 C       2.340992    -0.622629    -2.338300 C          1 UNL1 0.000
    43 C       1.617567    -0.643575    -1.142611 C          1 UNL1 0.000
    44 C       3.261189     0.576246    -4.342314 C          1 UNL1 0.000
    45 H       0.695733     2.626853    -1.018662 H          1 UNL1 0.000
    46 H       1.969633     2.668310    -3.119501 H          1 UNL1 0.000
    47 H       2.796170    -1.541706    -2.700567 H          1 UNL1 0.000
    48 H       1.521177    -1.580716    -0.597939 H          1 UNL1 0.000
    49 H       2.791768    -0.086957    -5.075893 H          1 UNL1 0.000
    50 H       4.287794     0.242401    -4.159773 H          1 UNL1 0.000
    51 H       3.308354     1.580169    -4.776778 H          1 UNL1 0.000
@<TRIPOS>BOND
     1      1      2   2
     2      2      3   1
     3      3      4   2
     4      4      5   1
     5      5      6   2
     6      6      1   1
     7      4      7   1
     8      7      8   1
     9      8      9   2
    10      9     10   1
    11     10     11   2
    12     11     12   1
    13     12     13   2
    14     13      8   1
    15     13      5   1
    16     14     15   2
    17     15     16   1
    18     16     17   2
    19     17     18   1
    20     18     19   2
    21     19     14   1
    22     17     20   1
    23     20     21   2
    24     21     22   1
    25     22     23   2
    26     23     18   1
    27      7     14   1
    28      1     24   1
    29      2     25   1
    30      3     26   1
    31      6     27   1
    32      9     28   1
    33     10     29   1
    34     11     30   1
    35     12     31   1
    36     15     32   1
    37     16     33   1
    38     19     34   1
    39     20     35   1
    40     21     36   1
    41     23     37   1
    42     38     39   2
    43     39     40   1
    44     40     41   2
    45     41     42   1
    46     42     43   2
    47     43     38   1
    48     41     44   1
    49     39     45   1
    50     40     46   1
    51     42     47   1
    52     43     48   1
    53     44     49   1
    54     44     50   1
    55     44     51   1
    56     22     38   1
