# Produced with molli package
@<TRIPOS>MOLECULE
G_5_O
47 52 0 0 0
SMALL
USER_CHARGES

@<TRIPOS>ATOM
     1 C      -8.139546     3.562609     2.963353 C          1 UNL1 0.000
     2 C      -6.804340     3.952981     2.953454 C          1 UNL1 0.000
     3 C      -5.779078     3.003609     2.954917 C          1 UNL1 0.000
     4 C      -6.135365     1.642863     2.967688 C          1 UNL1 0.000
     5 C      -7.468024     1.227053     2.979025 C          1 UNL1 0.000
     6 C      -8.483933     2.206814     2.975028 C          1 UNL1 0.000
     7 N      -5.353004     0.500354     2.983964 N          1 UNL1 0.000
     8 C      -6.148647    -0.633818     3.000410 C          1 UNL1 0.000
     9 C      -5.807978    -1.998915     3.012809 C          1 UNL1 0.000
    10 C      -6.843722    -2.936865     3.021620 C          1 UNL1 0.000
    11 C      -8.174355    -2.531318     3.019348 C          1 UNL1 0.000
    12 C      -8.503220    -1.171587     3.006708 C          1 UNL1 0.000
    13 C      -7.476376    -0.203164     2.994883 C          1 UNL1 0.000
    14 C      -3.944225     0.490763     3.006364 C          1 UNL1 0.000
    15 C      -3.287211     0.417928     4.233139 C          1 UNL1 0.000
    16 C      -1.893531     0.387303     4.249962 C          1 UNL1 0.000
    17 C      -1.158941     0.414921     3.051120 C          1 UNL1 0.000
    18 C      -1.840079     0.492270     1.812328 C          1 UNL1 0.000
    19 C      -3.242243     0.536041     1.799392 C          1 UNL1 0.000
    20 C       0.241556     0.362382     3.058464 C          1 UNL1 0.000
    21 C       0.962391     0.366663     1.860790 C          1 UNL1 0.000
    22 C       0.305484     0.436332     0.624206 C          1 UNL1 0.000
    23 C      -1.097300     0.513683     0.618966 C          1 UNL1 0.000
    24 H      -8.923443     4.315884     2.962872 H          1 UNL1 0.000
    25 H      -6.552297     5.011019     2.945422 H          1 UNL1 0.000
    26 H      -4.738084     3.314440     2.949221 H          1 UNL1 0.000
    27 H      -9.529288     1.912242     2.983913 H          1 UNL1 0.000
    28 H      -4.770664    -2.321503     3.011463 H          1 UNL1 0.000
    29 H      -6.603937    -3.997741     3.029013 H          1 UNL1 0.000
    30 H      -8.966896    -3.275515     3.026093 H          1 UNL1 0.000
    31 H      -9.545233    -0.865212     3.003951 H          1 UNL1 0.000
    32 H      -3.843605     0.388000     5.166715 H          1 UNL1 0.000
    33 H      -1.380691     0.334794     5.207906 H          1 UNL1 0.000
    34 H      -3.782475     0.589878     0.856434 H          1 UNL1 0.000
    35 H       0.786683     0.315091     3.998499 H          1 UNL1 0.000
    36 H       2.049383     0.330894     1.899139 H          1 UNL1 0.000
    37 H      -1.612019     0.580859    -0.339036 H          1 UNL1 0.000
    38 C       1.058088     0.421322    -0.634396 C          1 UNL1 0.000
    39 N       0.923235     1.519395    -1.417647 N          1 UNL1 0.000
    40 C       1.617086     1.544412    -2.576780 C          1 UNL1 0.000
    41 C       2.433060     0.513506    -3.010896 C          1 UNL1 0.000
    42 C       2.548874    -0.613252    -2.207176 C          1 UNL1 0.000
    43 C       1.857188    -0.661351    -0.999631 C          1 UNL1 0.000
    44 H       1.495572     2.448055    -3.167221 H          1 UNL1 0.000
    45 H       2.963258     0.586769    -3.953665 H          1 UNL1 0.000
    46 H       3.170779    -1.448362    -2.516232 H          1 UNL1 0.000
    47 H       1.930207    -1.536268    -0.361597 H          1 UNL1 0.000
@<TRIPOS>BOND
     1      1      2   2
     2      2      3   1
     3      3      4   2
     4      4      5   1
     5      5      6   2
     6      6      1   1
     7      4      7   1
     8      7      8   1
     9      8      9   2
    10      9     10   1
    11     10     11   2
    12     11     12   1
    13     12     13   2
    14     13      8   1
    15     13      5   1
    16     14     15   2
    17     15     16   1
    18     16     17   2
    19     17     18   1
    20     18     19   2
    21     19     14   1
    22     17     20   1
    23     20     21   2
    24     21     22   1
    25     22     23   2
    26     23     18   1
    27      7     14   1
    28      1     24   1
    29      2     25   1
    30      3     26   1
    31      6     27   1
    32      9     28   1
    33     10     29   1
    34     11     30   1
    35     12     31   1
    36     15     32   1
    37     16     33   1
    38     19     34   1
    39     20     35   1
    40     21     36   1
    41     23     37   1
    42     38     39   2
    43     39     40   1
    44     40     41   2
    45     41     42   1
    46     42     43   2
    47     43     38   1
    48     40     44   1
    49     41     45   1
    50     42     46   1
    51     43     47   1
    52     22     38   1
