# Produced with molli package
@<TRIPOS>MOLECULE
G_5_P
52 57 0 0 0
SMALL
USER_CHARGES

@<TRIPOS>ATOM
     1 C      -8.137136     3.664900     2.821564 C          1 UNL1 0.000
     2 C      -6.799791     4.046360     2.786412 C          1 UNL1 0.000
     3 C      -5.780129     3.091115     2.810031 C          1 UNL1 0.000
     4 C      -6.144217     1.733650     2.871160 C          1 UNL1 0.000
     5 C      -7.479319     1.327003     2.908832 C          1 UNL1 0.000
     6 C      -8.489359     2.312447     2.881349 C          1 UNL1 0.000
     7 N      -5.368824     0.587239     2.922971 N          1 UNL1 0.000
     8 C      -6.171362    -0.540304     2.985603 C          1 UNL1 0.000
     9 C      -5.838774    -1.906182     3.043852 C          1 UNL1 0.000
    10 C      -6.879986    -2.836585     3.094656 C          1 UNL1 0.000
    11 C      -8.208078    -2.422877     3.089539 C          1 UNL1 0.000
    12 C      -8.528891    -1.062410     3.031051 C          1 UNL1 0.000
    13 C      -7.496361    -0.101651     2.975216 C          1 UNL1 0.000
    14 C      -3.960191     0.569822     2.952919 C          1 UNL1 0.000
    15 C      -3.312505     0.517889     4.185979 C          1 UNL1 0.000
    16 C      -1.919773     0.482651     4.214063 C          1 UNL1 0.000
    17 C      -1.176384     0.481932     3.021058 C          1 UNL1 0.000
    18 C      -1.847346     0.527804     1.773780 C          1 UNL1 0.000
    19 C      -3.249389     0.581553     1.750116 C          1 UNL1 0.000
    20 C       0.223271     0.425365     3.043597 C          1 UNL1 0.000
    21 C       0.954428     0.394740     1.854303 C          1 UNL1 0.000
    22 C       0.306732     0.426013     0.612983 C          1 UNL1 0.000
    23 C      -1.094128     0.503244     0.586383 C          1 UNL1 0.000
    24 H      -8.916712     4.422519     2.804580 H          1 UNL1 0.000
    25 H      -6.542034     5.102122     2.742369 H          1 UNL1 0.000
    26 H      -4.737556     3.395298     2.786891 H          1 UNL1 0.000
    27 H      -9.536316     2.024867     2.911158 H          1 UNL1 0.000
    28 H      -4.803503    -2.235404     3.045099 H          1 UNL1 0.000
    29 H      -6.646471    -3.898036     3.137557 H          1 UNL1 0.000
    30 H      -9.004927    -3.161403     3.129978 H          1 UNL1 0.000
    31 H      -9.569057    -0.749850     3.026945 H          1 UNL1 0.000
    32 H      -3.875975     0.507471     5.115733 H          1 UNL1 0.000
    33 H      -1.414496     0.445489     5.176947 H          1 UNL1 0.000
    34 H      -3.783568     0.613634     0.802620 H          1 UNL1 0.000
    35 H       0.759676     0.393220     3.989378 H          1 UNL1 0.000
    36 H       2.040381     0.338688     1.899881 H          1 UNL1 0.000
    37 H      -1.602723     0.525066    -0.376571 H          1 UNL1 0.000
    38 C       1.083817     0.351908    -0.626130 C          1 UNL1 0.000
    39 C       1.410691     1.510266    -1.345815 C          1 UNL1 0.000
    40 C       2.189820     1.436100    -2.505944 C          1 UNL1 0.000
    41 C       2.654030     0.199964    -2.954122 C          1 UNL1 0.000
    42 C       2.300728    -0.962261    -2.272329 C          1 UNL1 0.000
    43 C       1.531135    -0.886579    -1.109489 C          1 UNL1 0.000
    44 O       3.415948     0.031037    -4.077659 O          1 UNL1 0.000
    45 C       4.477231     0.975377    -4.194355 C          1 UNL1 0.000
    46 H       1.061732     2.481522    -1.000743 H          1 UNL1 0.000
    47 H       2.408686     2.349062    -3.049995 H          1 UNL1 0.000
    48 H       2.640117    -1.928258    -2.636114 H          1 UNL1 0.000
    49 H       1.282094    -1.802415    -0.577361 H          1 UNL1 0.000
    50 H       5.174838     0.600257    -4.949479 H          1 UNL1 0.000
    51 H       5.028294     1.079338    -3.252561 H          1 UNL1 0.000
    52 H       4.104514     1.945357    -4.536803 H          1 UNL1 0.000
@<TRIPOS>BOND
     1      1      2   2
     2      2      3   1
     3      3      4   2
     4      4      5   1
     5      5      6   2
     6      6      1   1
     7      4      7   1
     8      7      8   1
     9      8      9   2
    10      9     10   1
    11     10     11   2
    12     11     12   1
    13     12     13   2
    14     13      8   1
    15     13      5   1
    16     14     15   2
    17     15     16   1
    18     16     17   2
    19     17     18   1
    20     18     19   2
    21     19     14   1
    22     17     20   1
    23     20     21   2
    24     21     22   1
    25     22     23   2
    26     23     18   1
    27      7     14   1
    28      1     24   1
    29      2     25   1
    30      3     26   1
    31      6     27   1
    32      9     28   1
    33     10     29   1
    34     11     30   1
    35     12     31   1
    36     15     32   1
    37     16     33   1
    38     19     34   1
    39     20     35   1
    40     21     36   1
    41     23     37   1
    42     38     39   2
    43     39     40   1
    44     40     41   2
    45     41     42   1
    46     42     43   2
    47     43     38   1
    48     44     45   1
    49     41     44   1
    50     39     46   1
    51     40     47   1
    52     42     48   1
    53     43     49   1
    54     45     50   1
    55     45     51   1
    56     45     52   1
    57     22     38   1
