# Produced with molli package
@<TRIPOS>MOLECULE
G_5_R
49 54 0 0 0
SMALL
USER_CHARGES

@<TRIPOS>ATOM
     1 C      -8.150352     3.544393     3.162309 C          1 UNL1 0.000
     2 C      -6.825241     3.959153     3.077181 C          1 UNL1 0.000
     3 C      -5.785305     3.028720     3.001879 C          1 UNL1 0.000
     4 C      -6.116191     1.661487     3.015258 C          1 UNL1 0.000
     5 C      -7.438510     1.221604     3.099002 C          1 UNL1 0.000
     6 C      -8.469629     2.182540     3.173446 C          1 UNL1 0.000
     7 N      -5.314737     0.533055     2.962176 N          1 UNL1 0.000
     8 C      -6.088440    -0.615284     3.011041 C          1 UNL1 0.000
     9 C      -5.723807    -1.974086     2.996253 C          1 UNL1 0.000
    10 C      -6.740067    -2.930251     3.071889 C          1 UNL1 0.000
    11 C      -8.074936    -2.548507     3.158295 C          1 UNL1 0.000
    12 C      -8.427849    -1.194931     3.170894 C          1 UNL1 0.000
    13 C      -7.420985    -0.208482     3.097328 C          1 UNL1 0.000
    14 C      -3.905700     0.548575     2.937119 C          1 UNL1 0.000
    15 C      -3.212257     0.564981     4.145896 C          1 UNL1 0.000
    16 C      -1.818978     0.564075     4.123642 C          1 UNL1 0.000
    17 C      -1.119421     0.545525     2.904666 C          1 UNL1 0.000
    18 C      -1.835591     0.533907     1.682357 C          1 UNL1 0.000
    19 C      -3.239465     0.535504     1.708869 C          1 UNL1 0.000
    20 C       0.281544     0.539240     2.878398 C          1 UNL1 0.000
    21 C       0.972179     0.514633     1.664486 C          1 UNL1 0.000
    22 C       0.281241     0.499352     0.445906 C          1 UNL1 0.000
    23 C      -1.123026     0.517883     0.469479 C          1 UNL1 0.000
    24 H      -8.945880     4.283060     3.222026 H          1 UNL1 0.000
    25 H      -6.593014     5.021766     3.069937 H          1 UNL1 0.000
    26 H      -4.752465     3.359023     2.936087 H          1 UNL1 0.000
    27 H      -9.507212     1.868874     3.242688 H          1 UNL1 0.000
    28 H      -4.683067    -2.278350     2.931703 H          1 UNL1 0.000
    29 H      -6.481699    -3.986768     3.065117 H          1 UNL1 0.000
    30 H      -8.851936    -3.306587     3.218920 H          1 UNL1 0.000
    31 H      -9.472783    -0.907106     3.242089 H          1 UNL1 0.000
    32 H      -3.741279     0.575512     5.095823 H          1 UNL1 0.000
    33 H      -1.279084     0.576264     5.068129 H          1 UNL1 0.000
    34 H      -3.808497     0.525169     0.781508 H          1 UNL1 0.000
    35 H       0.850702     0.556122     3.805374 H          1 UNL1 0.000
    36 H       2.060440     0.519089     1.674133 H          1 UNL1 0.000
    37 H      -1.664934     0.521186    -0.475369 H          1 UNL1 0.000
    38 C       1.012348     0.457050    -0.820269 C          1 UNL1 0.000
    39 N       1.187307     1.650100    -1.443427 N          1 UNL1 0.000
    40 C       1.890987     1.656262    -2.603240 C          1 UNL1 0.000
    41 C       2.417664     0.508418    -3.171298 C          1 UNL1 0.000
    42 C       2.226295    -0.717234    -2.533494 C          1 UNL1 0.000
    43 C       1.514553    -0.739631    -1.334216 C          1 UNL1 0.000
    44 N       3.160100     0.594086    -4.416303 N          1 UNL1 0.000
    45 O       3.281143    -0.442609    -5.082359 O          1 UNL1 0.000
    46 O       3.628633     1.697103    -4.730803 O          1 UNL1 0.000
    47 H       2.007083     2.638099    -3.055845 H          1 UNL1 0.000
    48 H       2.623565    -1.641732    -2.945131 H          1 UNL1 0.000
    49 H       1.354827    -1.676182    -0.807186 H          1 UNL1 0.000
@<TRIPOS>BOND
     1      1      2   2
     2      2      3   1
     3      3      4   2
     4      4      5   1
     5      5      6   2
     6      6      1   1
     7      4      7   1
     8      7      8   1
     9      8      9   2
    10      9     10   1
    11     10     11   2
    12     11     12   1
    13     12     13   2
    14     13      8   1
    15     13      5   1
    16     14     15   2
    17     15     16   1
    18     16     17   2
    19     17     18   1
    20     18     19   2
    21     19     14   1
    22     17     20   1
    23     20     21   2
    24     21     22   1
    25     22     23   2
    26     23     18   1
    27      7     14   1
    28      1     24   1
    29      2     25   1
    30      3     26   1
    31      6     27   1
    32      9     28   1
    33     10     29   1
    34     11     30   1
    35     12     31   1
    36     15     32   1
    37     16     33   1
    38     19     34   1
    39     20     35   1
    40     21     36   1
    41     23     37   1
    42     38     39   2
    43     39     40   1
    44     40     41   2
    45     41     42   1
    46     42     43   2
    47     43     38   1
    48     44     45   2
    49     44     46   1
    50     41     44   1
    51     40     47   1
    52     42     48   1
    53     43     49   1
    54     22     38   1
