# Produced with molli package
@<TRIPOS>MOLECULE
G_5_K
50 55 0 0 0
SMALL
USER_CHARGES

@<TRIPOS>ATOM
     1 C      -8.210093     3.598449     3.188661 C          1 UNL1 0.000
     2 C      -6.875317     3.989834     3.169067 C          1 UNL1 0.000
     3 C      -5.850286     3.041944     3.109165 C          1 UNL1 0.000
     4 C      -6.206278     1.681479     3.070512 C          1 UNL1 0.000
     5 C      -7.538607     1.264908     3.089493 C          1 UNL1 0.000
     6 C      -8.554238     2.243177     3.149002 C          1 UNL1 0.000
     7 N      -5.424319     0.539728     3.013210 N          1 UNL1 0.000
     8 C      -6.219613    -0.594452     3.001325 C          1 UNL1 0.000
     9 C      -5.879084    -1.958940     2.961079 C          1 UNL1 0.000
    10 C      -6.914599    -2.897181     2.968378 C          1 UNL1 0.000
    11 C      -8.244786    -2.492509     3.012287 C          1 UNL1 0.000
    12 C      -8.573549    -1.133331     3.050979 C          1 UNL1 0.000
    13 C      -7.546932    -0.164705     3.047319 C          1 UNL1 0.000
    14 C      -4.015214     0.530207     3.011766 C          1 UNL1 0.000
    15 C      -3.339440     0.504092     4.230079 C          1 UNL1 0.000
    16 C      -1.945971     0.477989     4.226602 C          1 UNL1 0.000
    17 C      -1.229475     0.479020     3.016937 C          1 UNL1 0.000
    18 C      -1.928223     0.512793     1.785655 C          1 UNL1 0.000
    19 C      -3.331622     0.536138     1.793035 C          1 UNL1 0.000
    20 C       0.171067     0.444557     3.007447 C          1 UNL1 0.000
    21 C       0.877011     0.442407     1.801823 C          1 UNL1 0.000
    22 C       0.203758     0.481308     0.573917 C          1 UNL1 0.000
    23 C      -1.200314     0.518336     0.581829 C          1 UNL1 0.000
    24 H      -8.994003     4.350311     3.236466 H          1 UNL1 0.000
    25 H      -6.624037     5.047609     3.201491 H          1 UNL1 0.000
    26 H      -4.809872     3.353824     3.094486 H          1 UNL1 0.000
    27 H      -9.599328     1.947766     3.166826 H          1 UNL1 0.000
    28 H      -4.842234    -2.281287     2.928510 H          1 UNL1 0.000
    29 H      -6.675131    -3.957834     2.940701 H          1 UNL1 0.000
    30 H      -9.037061    -3.237065     3.018586 H          1 UNL1 0.000
    31 H      -9.615218    -0.827802     3.087843 H          1 UNL1 0.000
    32 H      -3.881667     0.498775     5.172536 H          1 UNL1 0.000
    33 H      -1.419041     0.453664     5.178203 H          1 UNL1 0.000
    34 H      -3.887942     0.556567     0.858112 H          1 UNL1 0.000
    35 H       0.728538     0.418566     3.941300 H          1 UNL1 0.000
    36 H       1.964905     0.419701     1.828364 H          1 UNL1 0.000
    37 H      -1.734347     0.540772    -0.367243 H          1 UNL1 0.000
    38 C       0.954302     0.482259    -0.687357 C          1 UNL1 0.000
    39 C       0.955752     1.613779    -1.521637 C          1 UNL1 0.000
    40 C       1.685452     1.626308    -2.714128 C          1 UNL1 0.000
    41 C       2.422959     0.494211    -3.076229 C          1 UNL1 0.000
    42 C       2.434447    -0.645278    -2.265849 C          1 UNL1 0.000
    43 C       1.699402    -0.644895    -1.077142 C          1 UNL1 0.000
    44 N       3.196588     0.504258    -4.317394 N          1 UNL1 0.000
    45 O       4.181935    -0.245315    -4.383578 O          1 UNL1 0.000
    46 O       2.819215     1.261282    -5.221928 O          1 UNL1 0.000
    47 H       0.394585     2.502006    -1.234020 H          1 UNL1 0.000
    48 H       1.677486     2.518066    -3.337235 H          1 UNL1 0.000
    49 H       3.001108    -1.531229    -2.544552 H          1 UNL1 0.000
    50 H       1.704550    -1.535888    -0.450449 H          1 UNL1 0.000
@<TRIPOS>BOND
     1      1      2   2
     2      2      3   1
     3      3      4   2
     4      4      5   1
     5      5      6   2
     6      6      1   1
     7      4      7   1
     8      7      8   1
     9      8      9   2
    10      9     10   1
    11     10     11   2
    12     11     12   1
    13     12     13   2
    14     13      8   1
    15     13      5   1
    16     14     15   2
    17     15     16   1
    18     16     17   2
    19     17     18   1
    20     18     19   2
    21     19     14   1
    22     17     20   1
    23     20     21   2
    24     21     22   1
    25     22     23   2
    26     23     18   1
    27      7     14   1
    28      1     24   1
    29      2     25   1
    30      3     26   1
    31      6     27   1
    32      9     28   1
    33     10     29   1
    34     11     30   1
    35     12     31   1
    36     15     32   1
    37     16     33   1
    38     19     34   1
    39     20     35   1
    40     21     36   1
    41     23     37   1
    42     38     39   2
    43     39     40   1
    44     40     41   2
    45     41     42   1
    46     42     43   2
    47     43     38   1
    48     44     45   2
    49     44     46   1
    50     41     44   1
    51     39     47   1
    52     40     48   1
    53     42     49   1
    54     43     50   1
    55     22     38   1
