# Produced with molli package
@<TRIPOS>MOLECULE
G_5_L
52 58 0 0 0
SMALL
USER_CHARGES

@<TRIPOS>ATOM
     1 C      -8.185374     3.611826     3.264291 C          1 UNL1 0.000
     2 C      -6.853626     4.012468     3.282207 C          1 UNL1 0.000
     3 C      -5.821644     3.074898     3.191668 C          1 UNL1 0.000
     4 C      -6.166274     1.715105     3.078076 C          1 UNL1 0.000
     5 C      -7.495654     1.291108     3.046613 C          1 UNL1 0.000
     6 C      -8.518821     2.258052     3.150120 C          1 UNL1 0.000
     7 N      -5.373971     0.585326     2.943468 N          1 UNL1 0.000
     8 C      -6.162907    -0.548293     2.827342 C          1 UNL1 0.000
     9 C      -5.815278    -1.905775     2.698989 C          1 UNL1 0.000
    10 C      -6.845273    -2.848903     2.646436 C          1 UNL1 0.000
    11 C      -8.177797    -2.456176     2.715879 C          1 UNL1 0.000
    12 C      -8.514323    -1.104502     2.842200 C          1 UNL1 0.000
    13 C      -7.493386    -0.131917     2.906608 C          1 UNL1 0.000
    14 C      -3.963288     0.590185     2.946512 C          1 UNL1 0.000
    15 C      -3.288440     0.795921     4.148857 C          1 UNL1 0.000
    16 C      -1.894318     0.804524     4.148164 C          1 UNL1 0.000
    17 C      -1.175132     0.651497     2.949958 C          1 UNL1 0.000
    18 C      -1.872972     0.473327     1.730921 C          1 UNL1 0.000
    19 C      -3.275258     0.417139     1.742416 C          1 UNL1 0.000
    20 C       0.226075     0.688061     2.937359 C          1 UNL1 0.000
    21 C       0.931398     0.588602     1.735443 C          1 UNL1 0.000
    22 C       0.255120     0.450776     0.517380 C          1 UNL1 0.000
    23 C      -1.146757     0.377988     0.530843 C          1 UNL1 0.000
    24 H      -8.975199     4.355646     3.334012 H          1 UNL1 0.000
    25 H      -6.609802     5.069399     3.362536 H          1 UNL1 0.000
    26 H      -4.783824     3.395908     3.194385 H          1 UNL1 0.000
    27 H      -9.561934     1.955951     3.131514 H          1 UNL1 0.000
    28 H      -4.776643    -2.221302     2.656875 H          1 UNL1 0.000
    29 H      -6.599087    -3.904512     2.556001 H          1 UNL1 0.000
    30 H      -8.965539    -3.204470     2.677081 H          1 UNL1 0.000
    31 H      -9.557620    -0.808177     2.901187 H          1 UNL1 0.000
    32 H      -3.831511     0.926882     5.081764 H          1 UNL1 0.000
    33 H      -1.369207     0.945499     5.090424 H          1 UNL1 0.000
    34 H      -3.827382     0.278383     0.815105 H          1 UNL1 0.000
    35 H       0.783535     0.812006     3.863009 H          1 UNL1 0.000
    36 H       2.018374     0.642232     1.751024 H          1 UNL1 0.000
    37 H      -1.676658     0.262783    -0.413684 H          1 UNL1 0.000
    38 C       0.997557     0.420738    -0.746440 C          1 UNL1 0.000
    39 C       1.071214     1.570262    -1.547211 C          1 UNL1 0.000
    40 C       1.787191     1.589762    -2.749803 C          1 UNL1 0.000
    41 C       2.431941     0.410551    -3.133587 C          1 UNL1 0.000
    42 C       2.382571    -0.756495    -2.372172 C          1 UNL1 0.000
    43 C       1.657332    -0.749287    -1.163428 C          1 UNL1 0.000
    44 N       3.198497     0.138006    -4.244302 N          1 UNL1 0.000
    45 C       3.631341    -1.161115    -4.213222 C          1 UNL1 0.000
    46 C       3.140840    -1.740365    -3.065168 C          1 UNL1 0.000
    47 H       0.567681     2.481279    -1.226087 H          1 UNL1 0.000
    48 H       1.837507     2.490528    -3.352361 H          1 UNL1 0.000
    49 H       1.610269    -1.650469    -0.557966 H          1 UNL1 0.000
    50 H       3.407321     0.805556    -4.973673 H          1 UNL1 0.000
    51 H       4.248466    -1.559328    -5.007209 H          1 UNL1 0.000
    52 H       3.308316    -2.762767    -2.753238 H          1 UNL1 0.000
@<TRIPOS>BOND
     1      1      2   2
     2      2      3   1
     3      3      4   2
     4      4      5   1
     5      5      6   2
     6      6      1   1
     7      4      7   1
     8      7      8   1
     9      8      9   2
    10      9     10   1
    11     10     11   2
    12     11     12   1
    13     12     13   2
    14     13      8   1
    15     13      5   1
    16     14     15   2
    17     15     16   1
    18     16     17   2
    19     17     18   1
    20     18     19   2
    21     19     14   1
    22     17     20   1
    23     20     21   2
    24     21     22   1
    25     22     23   2
    26     23     18   1
    27      7     14   1
    28      1     24   1
    29      2     25   1
    30      3     26   1
    31      6     27   1
    32      9     28   1
    33     10     29   1
    34     11     30   1
    35     12     31   1
    36     15     32   1
    37     16     33   1
    38     19     34   1
    39     20     35   1
    40     21     36   1
    41     23     37   1
    42     38     39   2
    43     39     40   1
    44     40     41   2
    45     41     42   1
    46     42     43   2
    47     43     38   1
    48     41     44   1
    49     44     45   1
    50     45     46   2
    51     46     42   1
    52     39     47   1
    53     40     48   1
    54     43     49   1
    55     44     50   1
    56     45     51   1
    57     46     52   1
    58     22     38   1
