# Produced with molli package
@<TRIPOS>MOLECULE
G_5_Q
46 51 0 0 0
SMALL
USER_CHARGES

@<TRIPOS>ATOM
     1 C      -8.209483     3.576333     3.198613 C          1 UNL1 0.000
     2 C      -6.877508     3.977572     3.189612 C          1 UNL1 0.000
     3 C      -5.845229     3.037461     3.133587 C          1 UNL1 0.000
     4 C      -6.191117     1.674778     3.085283 C          1 UNL1 0.000
     5 C      -7.520405     1.248332     3.090153 C          1 UNL1 0.000
     6 C      -8.543499     2.218771     3.149910 C          1 UNL1 0.000
     7 N      -5.400325     0.539615     3.022246 N          1 UNL1 0.000
     8 C      -6.187266    -0.600014     2.985362 C          1 UNL1 0.000
     9 C      -5.836402    -1.961259     2.926407 C          1 UNL1 0.000
    10 C      -6.864851    -2.907163     2.913831 C          1 UNL1 0.000
    11 C      -8.198186    -2.513030     2.957839 C          1 UNL1 0.000
    12 C      -8.537238    -1.157008     3.015572 C          1 UNL1 0.000
    13 C      -7.517919    -0.180766     3.031183 C          1 UNL1 0.000
    14 C      -3.991381     0.539816     3.029909 C          1 UNL1 0.000
    15 C      -3.321864     0.543373     4.252230 C          1 UNL1 0.000
    16 C      -1.928230     0.516305     4.256409 C          1 UNL1 0.000
    17 C      -1.205454     0.491268     3.050591 C          1 UNL1 0.000
    18 C      -1.898471     0.504453     1.816219 C          1 UNL1 0.000
    19 C      -3.301242     0.523080     1.815488 C          1 UNL1 0.000
    20 C       0.194874     0.455524     3.045876 C          1 UNL1 0.000
    21 C       0.906046     0.431557     1.842210 C          1 UNL1 0.000
    22 C       0.240001     0.452397     0.607291 C          1 UNL1 0.000
    23 C      -1.165385     0.497129     0.616307 C          1 UNL1 0.000
    24 H      -8.999049     4.322406     3.242613 H          1 UNL1 0.000
    25 H      -6.633801     5.036992     3.225394 H          1 UNL1 0.000
    26 H      -4.806940     3.356899     3.123978 H          1 UNL1 0.000
    27 H      -9.586470     1.915724     3.156718 H          1 UNL1 0.000
    28 H      -4.796966    -2.275275     2.894617 H          1 UNL1 0.000
    29 H      -6.617184    -3.965387     2.870497 H          1 UNL1 0.000
    30 H      -8.984866    -3.263417     2.948632 H          1 UNL1 0.000
    31 H      -9.581271    -0.859668     3.051359 H          1 UNL1 0.000
    32 H      -3.869069     0.557876     5.191600 H          1 UNL1 0.000
    33 H      -1.406038     0.513011     5.210988 H          1 UNL1 0.000
    34 H      -3.851459     0.525826     0.876517 H          1 UNL1 0.000
    35 H       0.748564     0.451179     3.982604 H          1 UNL1 0.000
    36 H       1.993835     0.422152     1.881380 H          1 UNL1 0.000
    37 H      -1.693648     0.524257    -0.337019 H          1 UNL1 0.000
    38 C       0.980840     0.438709    -0.659437 C          1 UNL1 0.000
    39 N       0.641585     1.389456    -1.569104 N          1 UNL1 0.000
    40 C       1.350279     1.388502    -2.722229 C          1 UNL1 0.000
    41 C       2.351808     0.469006    -2.980709 C          1 UNL1 0.000
    42 N       2.693079    -0.493986    -2.097620 N          1 UNL1 0.000
    43 C       1.987526    -0.485467    -0.938416 C          1 UNL1 0.000
    44 H       1.090153     2.158866    -3.439138 H          1 UNL1 0.000
    45 H       2.909039     0.483076    -3.910333 H          1 UNL1 0.000
    46 H       2.253267    -1.264990    -0.232017 H          1 UNL1 0.000
@<TRIPOS>BOND
     1      1      2   2
     2      2      3   1
     3      3      4   2
     4      4      5   1
     5      5      6   2
     6      6      1   1
     7      4      7   1
     8      7      8   1
     9      8      9   2
    10      9     10   1
    11     10     11   2
    12     11     12   1
    13     12     13   2
    14     13      8   1
    15     13      5   1
    16     14     15   2
    17     15     16   1
    18     16     17   2
    19     17     18   1
    20     18     19   2
    21     19     14   1
    22     17     20   1
    23     20     21   2
    24     21     22   1
    25     22     23   2
    26     23     18   1
    27      7     14   1
    28      1     24   1
    29      2     25   1
    30      3     26   1
    31      6     27   1
    32      9     28   1
    33     10     29   1
    34     11     30   1
    35     12     31   1
    36     15     32   1
    37     16     33   1
    38     19     34   1
    39     20     35   1
    40     21     36   1
    41     23     37   1
    42     38     39   2
    43     39     40   1
    44     40     41   2
    45     41     42   1
    46     42     43   2
    47     43     38   1
    48     40     44   1
    49     41     45   1
    50     43     46   1
    51     22     38   1
