# Produced with molli package
@<TRIPOS>MOLECULE
G_5_M
49 54 0 0 0
SMALL
USER_CHARGES

@<TRIPOS>ATOM
     1 C      -8.163888     3.596023     3.032690 C          1 UNL1 0.000
     2 C      -6.827827     3.983177     3.041320 C          1 UNL1 0.000
     3 C      -5.804413     3.031712     3.017615 C          1 UNL1 0.000
     4 C      -6.162989     1.671488     2.992978 C          1 UNL1 0.000
     5 C      -7.496765     1.259630     2.993466 C          1 UNL1 0.000
     6 C      -8.510803     2.241323     3.007762 C          1 UNL1 0.000
     7 N      -5.382838     0.526436     2.962685 N          1 UNL1 0.000
     8 C      -6.182096    -0.605190     2.993134 C          1 UNL1 0.000
     9 C      -5.847821    -1.971357     3.026356 C          1 UNL1 0.000
    10 C      -6.888316    -2.904222     3.062155 C          1 UNL1 0.000
    11 C      -8.217448    -2.493669     3.055660 C          1 UNL1 0.000
    12 C      -8.540223    -1.133400     3.020877 C          1 UNL1 0.000
    13 C      -7.508888    -0.170052     2.997172 C          1 UNL1 0.000
    14 C      -3.972679     0.517404     2.956426 C          1 UNL1 0.000
    15 C      -3.292930     0.569793     4.171332 C          1 UNL1 0.000
    16 C      -1.899193     0.573473     4.163621 C          1 UNL1 0.000
    17 C      -1.184901     0.534116     2.953192 C          1 UNL1 0.000
    18 C      -1.885339     0.489592     1.723005 C          1 UNL1 0.000
    19 C      -3.290609     0.475593     1.736009 C          1 UNL1 0.000
    20 C       0.216237     0.542413     2.944056 C          1 UNL1 0.000
    21 C       0.923064     0.514440     1.739708 C          1 UNL1 0.000
    22 C       0.249394     0.481216     0.512586 C          1 UNL1 0.000
    23 C      -1.155355     0.466320     0.518516 C          1 UNL1 0.000
    24 H      -8.946548     4.350509     3.049562 H          1 UNL1 0.000
    25 H      -6.574209     5.040566     3.066687 H          1 UNL1 0.000
    26 H      -4.763120     3.340892     3.022480 H          1 UNL1 0.000
    27 H      -9.556887     1.948783     3.007262 H          1 UNL1 0.000
    28 H      -4.812262    -2.299106     3.033396 H          1 UNL1 0.000
    29 H      -6.653826    -3.965783     3.097262 H          1 UNL1 0.000
    30 H      -9.013445    -3.233796     3.083386 H          1 UNL1 0.000
    31 H      -9.580918    -0.822138     3.023557 H          1 UNL1 0.000
    32 H      -3.831986     0.606129     5.114884 H          1 UNL1 0.000
    33 H      -1.369646     0.611885     5.113321 H          1 UNL1 0.000
    34 H      -3.849059     0.440974     0.802687 H          1 UNL1 0.000
    35 H       0.773816     0.575769     3.877568 H          1 UNL1 0.000
    36 H       2.011135     0.530032     1.764632 H          1 UNL1 0.000
    37 H      -1.686949     0.435627    -0.431651 H          1 UNL1 0.000
    38 C       1.005957     0.474315    -0.743530 C          1 UNL1 0.000
    39 C       1.140193     1.645469    -1.505015 C          1 UNL1 0.000
    40 C       1.894040     1.651765    -2.683537 C          1 UNL1 0.000
    41 C       2.522270     0.482093    -3.120243 C          1 UNL1 0.000
    42 C       2.390926    -0.692534    -2.374204 C          1 UNL1 0.000
    43 C       1.639394    -0.694090    -1.194163 C          1 UNL1 0.000
    44 C       3.301813     0.488542    -4.323824 C          1 UNL1 0.000
    45 N       3.934474     0.494224    -5.296548 N          1 UNL1 0.000
    46 H       0.666967     2.567905    -1.171920 H          1 UNL1 0.000
    47 H       1.990421     2.576099    -3.250294 H          1 UNL1 0.000
    48 H       2.873843    -1.611891    -2.700499 H          1 UNL1 0.000
    49 H       1.550823    -1.616078    -0.621617 H          1 UNL1 0.000
@<TRIPOS>BOND
     1      1      2   2
     2      2      3   1
     3      3      4   2
     4      4      5   1
     5      5      6   2
     6      6      1   1
     7      4      7   1
     8      7      8   1
     9      8      9   2
    10      9     10   1
    11     10     11   2
    12     11     12   1
    13     12     13   2
    14     13      8   1
    15     13      5   1
    16     14     15   2
    17     15     16   1
    18     16     17   2
    19     17     18   1
    20     18     19   2
    21     19     14   1
    22     17     20   1
    23     20     21   2
    24     21     22   1
    25     22     23   2
    26     23     18   1
    27      7     14   1
    28      1     24   1
    29      2     25   1
    30      3     26   1
    31      6     27   1
    32      9     28   1
    33     10     29   1
    34     11     30   1
    35     12     31   1
    36     15     32   1
    37     16     33   1
    38     19     34   1
    39     20     35   1
    40     21     36   1
    41     23     37   1
    42     38     39   2
    43     39     40   1
    44     40     41   2
    45     41     42   1
    46     42     43   2
    47     43     38   1
    48     44     45   3
    49     41     44   1
    50     39     46   1
    51     40     47   1
    52     42     48   1
    53     43     49   1
    54     22     38   1
