# Produced with molli package
@<TRIPOS>MOLECULE
G_5_S
53 58 0 0 0
SMALL
USER_CHARGES

@<TRIPOS>ATOM
     1 C      -8.188154     3.576163     3.161389 C          1 UNL1 0.000
     2 C      -6.851322     3.960393     3.156670 C          1 UNL1 0.000
     3 C      -5.827799     3.010025     3.072542 C          1 UNL1 0.000
     4 C      -6.185569     1.650768     3.005889 C          1 UNL1 0.000
     5 C      -7.521480     1.244397     3.027820 C          1 UNL1 0.000
     6 C      -8.535261     2.224427     3.095285 C          1 UNL1 0.000
     7 N      -5.407799     0.503131     2.920440 N          1 UNL1 0.000
     8 C      -6.216119    -0.624905     2.974741 C          1 UNL1 0.000
     9 C      -5.896077    -1.994719     3.005593 C          1 UNL1 0.000
    10 C      -6.945722    -2.918276     3.066848 C          1 UNL1 0.000
    11 C      -8.271528    -2.497679     3.083568 C          1 UNL1 0.000
    12 C      -8.581165    -1.135754     3.052536 C          1 UNL1 0.000
    13 C      -7.540701    -0.182733     3.009194 C          1 UNL1 0.000
    14 C      -3.992991     0.486757     2.913028 C          1 UNL1 0.000
    15 C      -3.318268     0.479217     4.131762 C          1 UNL1 0.000
    16 C      -1.923515     0.483546     4.133589 C          1 UNL1 0.000
    17 C      -1.196100     0.493336     2.929625 C          1 UNL1 0.000
    18 C      -1.882867     0.493571     1.691819 C          1 UNL1 0.000
    19 C      -3.295240     0.492592     1.697162 C          1 UNL1 0.000
    20 C       0.206633     0.503203     2.938796 C          1 UNL1 0.000
    21 C       0.934771     0.502028     1.745620 C          1 UNL1 0.000
    22 C       0.282313     0.492264     0.507691 C          1 UNL1 0.000
    23 C      -1.126452     0.494193     0.496611 C          1 UNL1 0.000
    24 H      -8.970420     4.328636     3.225547 H          1 UNL1 0.000
    25 H      -6.597464     5.016131     3.220519 H          1 UNL1 0.000
    26 H      -4.787064     3.320437     3.069753 H          1 UNL1 0.000
    27 H      -9.581112     1.930680     3.113054 H          1 UNL1 0.000
    28 H      -4.864362    -2.333485     2.994097 H          1 UNL1 0.000
    29 H      -6.721437    -3.981957     3.103703 H          1 UNL1 0.000
    30 H      -9.074401    -3.229471     3.130175 H          1 UNL1 0.000
    31 H      -9.618433    -0.813553     3.079765 H          1 UNL1 0.000
    32 H      -3.862027     0.472679     5.073489 H          1 UNL1 0.000
    33 H      -1.402458     0.479489     5.088927 H          1 UNL1 0.000
    34 H      -3.844217     0.499348     0.757557 H          1 UNL1 0.000
    35 H       0.750288     0.512513     3.881346 H          1 UNL1 0.000
    36 H       2.022395     0.512757     1.789813 H          1 UNL1 0.000
    37 H      -1.642958     0.488815    -0.462492 H          1 UNL1 0.000
    38 C       1.061648     0.476002    -0.738834 C          1 UNL1 0.000
    39 C       1.275183     1.648666    -1.473186 C          1 UNL1 0.000
    40 C       2.017958     1.626522    -2.661513 C          1 UNL1 0.000
    41 C       2.569403     0.431332    -3.147835 C          1 UNL1 0.000
    42 C       2.377077    -0.739752    -2.409455 C          1 UNL1 0.000
    43 C       1.632211    -0.713455    -1.218403 C          1 UNL1 0.000
    44 C       3.319150     0.488816    -4.444882 C          1 UNL1 0.000
    45 C       4.085528    -0.703299    -4.962771 C          1 UNL1 0.000
    46 O       3.324983     1.539184    -5.086721 O          1 UNL1 0.000
    47 H       0.867365     2.595298    -1.123411 H          1 UNL1 0.000
    48 H       2.161844     2.557369    -3.209003 H          1 UNL1 0.000
    49 H       2.776793    -1.696345    -2.727235 H          1 UNL1 0.000
    50 H       1.492219    -1.640480    -0.663852 H          1 UNL1 0.000
    51 H       3.828538    -0.850477    -6.016874 H          1 UNL1 0.000
    52 H       3.867194    -1.635014    -4.446067 H          1 UNL1 0.000
    53 H       5.156481    -0.497908    -4.878069 H          1 UNL1 0.000
@<TRIPOS>BOND
     1      1      2   2
     2      2      3   1
     3      3      4   2
     4      4      5   1
     5      5      6   2
     6      6      1   1
     7      4      7   1
     8      7      8   1
     9      8      9   2
    10      9     10   1
    11     10     11   2
    12     11     12   1
    13     12     13   2
    14     13      8   1
    15     13      5   1
    16     14     15   2
    17     15     16   1
    18     16     17   2
    19     17     18   1
    20     18     19   2
    21     19     14   1
    22     17     20   1
    23     20     21   2
    24     21     22   1
    25     22     23   2
    26     23     18   1
    27      7     14   1
    28      1     24   1
    29      2     25   1
    30      3     26   1
    31      6     27   1
    32      9     28   1
    33     10     29   1
    34     11     30   1
    35     12     31   1
    36     15     32   1
    37     16     33   1
    38     19     34   1
    39     20     35   1
    40     21     36   1
    41     23     37   1
    42     38     39   2
    43     39     40   1
    44     40     41   2
    45     41     42   1
    46     42     43   2
    47     43     38   1
    48     41     44   1
    49     44     45   1
    50     44     46   2
    51     39     47   1
    52     40     48   1
    53     42     49   1
    54     43     50   1
    55     45     51   1
    56     45     52   1
    57     45     53   1
    58     22     38   1
