# Produced with molli package
@<TRIPOS>MOLECULE
G_5_N
45 50 0 0 0
SMALL
USER_CHARGES

@<TRIPOS>ATOM
     1 C      -8.210521     3.610835     3.245554 C          1 UNL1 0.000
     2 C      -6.873001     3.992218     3.254753 C          1 UNL1 0.000
     3 C      -5.854988     3.037344     3.192837 C          1 UNL1 0.000
     4 C      -6.220017     1.680293     3.117170 C          1 UNL1 0.000
     5 C      -7.555135     1.274829     3.095709 C          1 UNL1 0.000
     6 C      -8.564004     2.259383     3.168810 C          1 UNL1 0.000
     7 N      -5.444107     0.535360     3.024441 N          1 UNL1 0.000
     8 C      -6.248032    -0.589730     2.938756 C          1 UNL1 0.000
     9 C      -5.919208    -1.954707     2.848701 C          1 UNL1 0.000
    10 C      -6.962811    -2.883770     2.815756 C          1 UNL1 0.000
    11 C      -8.289888    -2.470125     2.868279 C          1 UNL1 0.000
    12 C      -8.607439    -1.110870     2.956220 C          1 UNL1 0.000
    13 C      -7.572785    -0.151762     2.997850 C          1 UNL1 0.000
    14 C      -4.034229     0.522200     3.043120 C          1 UNL1 0.000
    15 C      -3.372350     0.703411     4.256856 C          1 UNL1 0.000
    16 C      -1.978789     0.724939     4.269533 C          1 UNL1 0.000
    17 C      -1.246798     0.603106     3.076264 C          1 UNL1 0.000
    18 C      -1.932575     0.432075     1.846693 C          1 UNL1 0.000
    19 C      -3.334444     0.373471     1.843102 C          1 UNL1 0.000
    20 C       0.154129     0.666520     3.077909 C          1 UNL1 0.000
    21 C       0.873783     0.593146     1.883481 C          1 UNL1 0.000
    22 C       0.203185     0.438931     0.667801 C          1 UNL1 0.000
    23 C      -1.194447     0.348316     0.654283 C          1 UNL1 0.000
    24 H      -8.989253     4.367976     3.293738 H          1 UNL1 0.000
    25 H      -6.613654     5.047238     3.306908 H          1 UNL1 0.000
    26 H      -4.812379     3.342481     3.191195 H          1 UNL1 0.000
    27 H      -9.611507     1.972493     3.157660 H          1 UNL1 0.000
    28 H      -4.885085    -2.285741     2.818464 H          1 UNL1 0.000
    29 H      -6.732064    -3.944903     2.753653 H          1 UNL1 0.000
    30 H      -9.088367    -3.207664     2.845265 H          1 UNL1 0.000
    31 H      -9.646607    -0.797941     3.001263 H          1 UNL1 0.000
    32 H      -3.926095     0.815635     5.185893 H          1 UNL1 0.000
    33 H      -1.464536     0.854757     5.219769 H          1 UNL1 0.000
    34 H      -3.878223     0.251964     0.908055 H          1 UNL1 0.000
    35 H       0.699263     0.789097     4.011621 H          1 UNL1 0.000
    36 H       1.959173     0.657219     1.910278 H          1 UNL1 0.000
    37 H      -1.713941     0.241848    -0.296635 H          1 UNL1 0.000
    38 C       0.957016     0.411985    -0.574759 C          1 UNL1 0.000
    39 C       0.954934    -0.693439    -1.402028 C          1 UNL1 0.000
    40 S       1.926630    -0.466153    -2.793897 S          1 UNL1 0.000
    41 C       2.359594     1.113584    -2.302085 C          1 UNL1 0.000
    42 C       1.780937     1.456972    -1.100032 C          1 UNL1 0.000
    43 H       0.437341    -1.632501    -1.259257 H          1 UNL1 0.000
    44 H       3.016486     1.714099    -2.916317 H          1 UNL1 0.000
    45 H       1.930856     2.418782    -0.624123 H          1 UNL1 0.000
@<TRIPOS>BOND
     1      1      2   2
     2      2      3   1
     3      3      4   2
     4      4      5   1
     5      5      6   2
     6      6      1   1
     7      4      7   1
     8      7      8   1
     9      8      9   2
    10      9     10   1
    11     10     11   2
    12     11     12   1
    13     12     13   2
    14     13      8   1
    15     13      5   1
    16     14     15   2
    17     15     16   1
    18     16     17   2
    19     17     18   1
    20     18     19   2
    21     19     14   1
    22     17     20   1
    23     20     21   2
    24     21     22   1
    25     22     23   2
    26     23     18   1
    27      7     14   1
    28      1     24   1
    29      2     25   1
    30      3     26   1
    31      6     27   1
    32      9     28   1
    33     10     29   1
    34     11     30   1
    35     12     31   1
    36     15     32   1
    37     16     33   1
    38     19     34   1
    39     20     35   1
    40     21     36   1
    41     23     37   1
    42     38     39   2
    43     39     40   1
    44     40     41   1
    45     41     42   2
    46     42     38   1
    47     39     43   1
    48     41     44   1
    49     42     45   1
    50     22     38   1
