# Produced with molli package
@<TRIPOS>MOLECULE
G_6_L
52 58 0 0 0
SMALL
USER_CHARGES

@<TRIPOS>ATOM
     1 C      -6.729290     3.601883     0.572175 C          1 UNL1 0.000
     2 C      -5.402467     4.018755     0.541941 C          1 UNL1 0.000
     3 C      -4.359888     3.090748     0.474926 C          1 UNL1 0.000
     4 C      -4.689925     1.723813     0.440326 C          1 UNL1 0.000
     5 C      -6.013780     1.281874     0.466932 C          1 UNL1 0.000
     6 C      -7.047555     2.240308     0.535239 C          1 UNL1 0.000
     7 N      -3.885850     0.597555     0.361442 N          1 UNL1 0.000
     8 C      -4.661276    -0.551865     0.355341 C          1 UNL1 0.000
     9 C      -4.296158    -1.909470     0.303562 C          1 UNL1 0.000
    10 C      -5.314328    -2.866556     0.311957 C          1 UNL1 0.000
    11 C      -6.651414    -2.486785     0.367203 C          1 UNL1 0.000
    12 C      -7.004549    -1.134251     0.418472 C          1 UNL1 0.000
    13 C      -5.995732    -0.147105     0.415940 C          1 UNL1 0.000
    14 C      -2.472470     0.616445     0.322302 C          1 UNL1 0.000
    15 C      -1.808172     0.669188     1.549702 C          1 UNL1 0.000
    16 C      -0.419997     0.663794     1.566333 C          1 UNL1 0.000
    17 C       0.317510     0.612133     0.369069 C          1 UNL1 0.000
    18 C      -0.362817     0.576056    -0.887155 C          1 UNL1 0.000
    19 C      -1.783059     0.574395    -0.916003 C          1 UNL1 0.000
    20 C       0.327381     0.544562    -2.123520 C          1 UNL1 0.000
    21 C      -0.341571     0.512920    -3.347308 C          1 UNL1 0.000
    22 C      -1.725964     0.510248    -3.372395 C          1 UNL1 0.000
    23 C      -2.437312     0.540267    -2.173814 C          1 UNL1 0.000
    24 H      -7.527135     4.338655     0.623227 H          1 UNL1 0.000
    25 H      -5.171122     5.081203     0.567986 H          1 UNL1 0.000
    26 H      -3.325957     3.422527     0.444193 H          1 UNL1 0.000
    27 H      -8.086653     1.924849     0.557749 H          1 UNL1 0.000
    28 H      -3.253796    -2.212192     0.257932 H          1 UNL1 0.000
    29 H      -5.055389    -3.922307     0.274248 H          1 UNL1 0.000
    30 H      -7.429863    -3.245755     0.371888 H          1 UNL1 0.000
    31 H      -8.051355    -0.847987     0.462975 H          1 UNL1 0.000
    32 H      -2.360557     0.701281     2.486102 H          1 UNL1 0.000
    33 H       0.099584     0.691728     2.522909 H          1 UNL1 0.000
    34 H       1.416111     0.548424    -2.146957 H          1 UNL1 0.000
    35 H       0.224176     0.491898    -4.274847 H          1 UNL1 0.000
    36 H      -2.257191     0.487107    -4.320056 H          1 UNL1 0.000
    37 H      -3.524365     0.541289    -2.235505 H          1 UNL1 0.000
    38 C       1.787920     0.586481     0.465558 C          1 UNL1 0.000
    39 C       2.518173     1.779777     0.558378 C          1 UNL1 0.000
    40 C       3.916655     1.784279     0.628004 C          1 UNL1 0.000
    41 C       4.568657     0.547290     0.601992 C          1 UNL1 0.000
    42 C       3.882455    -0.663394     0.518485 C          1 UNL1 0.000
    43 C       2.475509    -0.642220     0.454181 C          1 UNL1 0.000
    44 N       5.912108     0.248220     0.645469 N          1 UNL1 0.000
    45 C       6.097360    -1.107996     0.591118 C          1 UNL1 0.000
    46 C       4.857027    -1.699106     0.514226 C          1 UNL1 0.000
    47 H       1.991102     2.732745     0.566879 H          1 UNL1 0.000
    48 H       4.466636     2.717248     0.693047 H          1 UNL1 0.000
    49 H       1.924850    -1.576685     0.383191 H          1 UNL1 0.000
    50 H       6.650372     0.935642     0.705268 H          1 UNL1 0.000
    51 H       7.091494    -1.533716     0.611202 H          1 UNL1 0.000
    52 H       4.667122    -2.762866     0.457200 H          1 UNL1 0.000
@<TRIPOS>BOND
     1      1      2   2
     2      2      3   1
     3      3      4   2
     4      4      5   1
     5      5      6   2
     6      6      1   1
     7      4      7   1
     8      7      8   1
     9      8      9   2
    10      9     10   1
    11     10     11   2
    12     11     12   1
    13     12     13   2
    14     13      8   1
    15     13      5   1
    16     14     15   2
    17     15     16   1
    18     16     17   2
    19     17     18   1
    20     18     19   2
    21     19     14   1
    22     18     20   1
    23     20     21   2
    24     21     22   1
    25     22     23   2
    26     23     19   1
    27      7     14   1
    28      1     24   1
    29      2     25   1
    30      3     26   1
    31      6     27   1
    32      9     28   1
    33     10     29   1
    34     11     30   1
    35     12     31   1
    36     15     32   1
    37     16     33   1
    38     20     34   1
    39     21     35   1
    40     22     36   1
    41     23     37   1
    42     38     39   2
    43     39     40   1
    44     40     41   2
    45     41     42   1
    46     42     43   2
    47     43     38   1
    48     41     44   1
    49     44     45   1
    50     45     46   2
    51     46     42   1
    52     39     47   1
    53     40     48   1
    54     43     49   1
    55     44     50   1
    56     45     51   1
    57     46     52   1
    58     17     38   1
