# Produced with molli package
@<TRIPOS>MOLECULE
G_6_O
47 52 0 0 0
SMALL
USER_CHARGES

@<TRIPOS>ATOM
     1 C      -6.741555     3.601867     0.545101 C          1 UNL1 0.000
     2 C      -5.412645     4.009855     0.492572 C          1 UNL1 0.000
     3 C      -4.376060     3.074077     0.448131 C          1 UNL1 0.000
     4 C      -4.714575     1.708824     0.457748 C          1 UNL1 0.000
     5 C      -6.040354     1.275225     0.507683 C          1 UNL1 0.000
     6 C      -7.068038     2.241551     0.553625 C          1 UNL1 0.000
     7 N      -3.917090     0.576467     0.410829 N          1 UNL1 0.000
     8 C      -4.697970    -0.568476     0.439150 C          1 UNL1 0.000
     9 C      -4.339724    -1.928642     0.416687 C          1 UNL1 0.000
    10 C      -5.362358    -2.879982     0.455803 C          1 UNL1 0.000
    11 C      -6.696944    -2.491961     0.514730 C          1 UNL1 0.000
    12 C      -7.043165    -1.136714     0.536178 C          1 UNL1 0.000
    13 C      -6.029828    -0.154981     0.498789 C          1 UNL1 0.000
    14 C      -2.504169     0.587041     0.368543 C          1 UNL1 0.000
    15 C      -1.838363     0.650378     1.594121 C          1 UNL1 0.000
    16 C      -0.450605     0.655470     1.606187 C          1 UNL1 0.000
    17 C       0.285702     0.598794     0.407275 C          1 UNL1 0.000
    18 C      -0.397214     0.560280    -0.847255 C          1 UNL1 0.000
    19 C      -1.817798     0.546014    -0.871384 C          1 UNL1 0.000
    20 C       0.287921     0.547083    -2.087099 C          1 UNL1 0.000
    21 C      -0.385887     0.508005    -3.308246 C          1 UNL1 0.000
    22 C      -1.770149     0.483034    -3.327714 C          1 UNL1 0.000
    23 C      -2.476670     0.503424    -2.126354 C          1 UNL1 0.000
    24 H      -7.534469     4.344931     0.578176 H          1 UNL1 0.000
    25 H      -5.174324     5.071092     0.483571 H          1 UNL1 0.000
    26 H      -3.340074     3.398556     0.401241 H          1 UNL1 0.000
    27 H      -8.108777     1.933480     0.593235 H          1 UNL1 0.000
    28 H      -3.299398    -2.237272     0.368190 H          1 UNL1 0.000
    29 H      -5.109215    -3.937636     0.439258 H          1 UNL1 0.000
    30 H      -7.479084    -3.246544     0.544419 H          1 UNL1 0.000
    31 H      -8.088118    -0.844057     0.582470 H          1 UNL1 0.000
    32 H      -2.388335     0.692580     2.531457 H          1 UNL1 0.000
    33 H       0.073759     0.706106     2.559353 H          1 UNL1 0.000
    34 H       1.375648     0.586615    -2.116472 H          1 UNL1 0.000
    35 H       0.175264     0.505915    -4.238799 H          1 UNL1 0.000
    36 H      -2.305351     0.457636    -4.273107 H          1 UNL1 0.000
    37 H      -3.564009     0.494184    -2.183672 H          1 UNL1 0.000
    38 C       1.751887     0.568472     0.505200 C          1 UNL1 0.000
    39 N       2.355747     1.765506     0.702519 N          1 UNL1 0.000
    40 C       3.703657     1.771450     0.790316 C          1 UNL1 0.000
    41 C       4.488197     0.633897     0.699580 C          1 UNL1 0.000
    42 C       3.854106    -0.587563     0.508887 C          1 UNL1 0.000
    43 C       2.465981    -0.625231     0.410954 C          1 UNL1 0.000
    44 H       4.151473     2.749763     0.939974 H          1 UNL1 0.000
    45 H       5.567638     0.699085     0.777209 H          1 UNL1 0.000
    46 H       4.433830    -1.503199     0.436210 H          1 UNL1 0.000
    47 H       1.949532    -1.568017     0.261085 H          1 UNL1 0.000
@<TRIPOS>BOND
     1      1      2   2
     2      2      3   1
     3      3      4   2
     4      4      5   1
     5      5      6   2
     6      6      1   1
     7      4      7   1
     8      7      8   1
     9      8      9   2
    10      9     10   1
    11     10     11   2
    12     11     12   1
    13     12     13   2
    14     13      8   1
    15     13      5   1
    16     14     15   2
    17     15     16   1
    18     16     17   2
    19     17     18   1
    20     18     19   2
    21     19     14   1
    22     18     20   1
    23     20     21   2
    24     21     22   1
    25     22     23   2
    26     23     19   1
    27      7     14   1
    28      1     24   1
    29      2     25   1
    30      3     26   1
    31      6     27   1
    32      9     28   1
    33     10     29   1
    34     11     30   1
    35     12     31   1
    36     15     32   1
    37     16     33   1
    38     20     34   1
    39     21     35   1
    40     22     36   1
    41     23     37   1
    42     38     39   2
    43     39     40   1
    44     40     41   2
    45     41     42   1
    46     42     43   2
    47     43     38   1
    48     40     44   1
    49     41     45   1
    50     42     46   1
    51     43     47   1
    52     17     38   1
