# Produced with molli package
@<TRIPOS>MOLECULE
G_6_R
49 54 0 0 0
SMALL
USER_CHARGES

@<TRIPOS>ATOM
     1 C      -6.612687     3.569719     0.614047 C          1 UNL1 0.000
     2 C      -5.278831     3.961639     0.564309 C          1 UNL1 0.000
     3 C      -4.253250     3.013479     0.524962 C          1 UNL1 0.000
     4 C      -4.608087     1.652426     0.537417 C          1 UNL1 0.000
     5 C      -5.939158     1.234897     0.587073 C          1 UNL1 0.000
     6 C      -6.955392     2.213492     0.626057 C          1 UNL1 0.000
     7 N      -3.824698     0.510165     0.497105 N          1 UNL1 0.000
     8 C      -4.619078    -0.625129     0.531051 C          1 UNL1 0.000
     9 C      -4.277227    -1.989560     0.510495 C          1 UNL1 0.000
    10 C      -5.311439    -2.928386     0.544520 C          1 UNL1 0.000
    11 C      -6.641428    -2.524085     0.596797 C          1 UNL1 0.000
    12 C      -6.971287    -1.164715     0.616640 C          1 UNL1 0.000
    13 C      -5.946006    -0.195378     0.583108 C          1 UNL1 0.000
    14 C      -2.412468     0.501302     0.434380 C          1 UNL1 0.000
    15 C      -1.726891     0.489819     1.650542 C          1 UNL1 0.000
    16 C      -0.338923     0.467288     1.640514 C          1 UNL1 0.000
    17 C       0.376847     0.452125     0.428074 C          1 UNL1 0.000
    18 C      -0.325970     0.487202    -0.816087 C          1 UNL1 0.000
    19 C      -1.746420     0.504763    -0.817167 C          1 UNL1 0.000
    20 C       0.338485     0.512852    -2.067382 C          1 UNL1 0.000
    21 C      -0.355443     0.538658    -3.277551 C          1 UNL1 0.000
    22 C      -1.739812     0.542656    -3.274525 C          1 UNL1 0.000
    23 C      -2.425941     0.527770    -2.061576 C          1 UNL1 0.000
    24 H      -7.396882     4.322243     0.642663 H          1 UNL1 0.000
    25 H      -5.028252     5.020076     0.553796 H          1 UNL1 0.000
    26 H      -3.213515     3.325826     0.481215 H          1 UNL1 0.000
    27 H      -7.999919     1.918053     0.663604 H          1 UNL1 0.000
    28 H      -3.240844    -2.311151     0.464405 H          1 UNL1 0.000
    29 H      -5.071435    -3.989115     0.527625 H          1 UNL1 0.000
    30 H      -7.432925    -3.269100     0.621093 H          1 UNL1 0.000
    31 H      -8.012975    -0.859527     0.655908 H          1 UNL1 0.000
    32 H      -2.262392     0.498069     2.597336 H          1 UNL1 0.000
    33 H       0.198552     0.461603     2.587628 H          1 UNL1 0.000
    34 H       1.425593     0.529847    -2.116412 H          1 UNL1 0.000
    35 H       0.189574     0.562587    -4.217478 H          1 UNL1 0.000
    36 H      -2.290987     0.565874    -4.210877 H          1 UNL1 0.000
    37 H      -3.514164     0.540527    -2.101448 H          1 UNL1 0.000
    38 C       1.842735     0.380041     0.496043 C          1 UNL1 0.000
    39 N       2.485305     1.554910     0.718131 N          1 UNL1 0.000
    40 C       3.841116     1.531883     0.762680 C          1 UNL1 0.000
    41 C       4.582645     0.373258     0.598458 C          1 UNL1 0.000
    42 C       3.916935    -0.834373     0.385433 C          1 UNL1 0.000
    43 C       2.523171    -0.828870     0.336636 C          1 UNL1 0.000
    44 N       6.034974     0.430627     0.641376 N          1 UNL1 0.000
    45 O       6.659042    -0.568529     0.258109 O          1 UNL1 0.000
    46 O       6.558546     1.473387     1.056459 O          1 UNL1 0.000
    47 H       4.301722     2.502414     0.930857 H          1 UNL1 0.000
    48 H       4.457625    -1.768818     0.256042 H          1 UNL1 0.000
    49 H       1.974817    -1.751735     0.168331 H          1 UNL1 0.000
@<TRIPOS>BOND
     1      1      2   2
     2      2      3   1
     3      3      4   2
     4      4      5   1
     5      5      6   2
     6      6      1   1
     7      4      7   1
     8      7      8   1
     9      8      9   2
    10      9     10   1
    11     10     11   2
    12     11     12   1
    13     12     13   2
    14     13      8   1
    15     13      5   1
    16     14     15   2
    17     15     16   1
    18     16     17   2
    19     17     18   1
    20     18     19   2
    21     19     14   1
    22     18     20   1
    23     20     21   2
    24     21     22   1
    25     22     23   2
    26     23     19   1
    27      7     14   1
    28      1     24   1
    29      2     25   1
    30      3     26   1
    31      6     27   1
    32      9     28   1
    33     10     29   1
    34     11     30   1
    35     12     31   1
    36     15     32   1
    37     16     33   1
    38     20     34   1
    39     21     35   1
    40     22     36   1
    41     23     37   1
    42     38     39   2
    43     39     40   1
    44     40     41   2
    45     41     42   1
    46     42     43   2
    47     43     38   1
    48     44     45   2
    49     44     46   1
    50     41     44   1
    51     40     47   1
    52     42     48   1
    53     43     49   1
    54     17     38   1
