# Produced with molli package
@<TRIPOS>MOLECULE
G_6_S
53 58 0 0 0
SMALL
USER_CHARGES

@<TRIPOS>ATOM
     1 C      -6.702357     3.631725     0.461015 C          1 UNL1 0.000
     2 C      -5.374909     4.041862     0.391457 C          1 UNL1 0.000
     3 C      -4.335497     3.108205     0.366283 C          1 UNL1 0.000
     4 C      -4.669593     1.742583     0.411894 C          1 UNL1 0.000
     5 C      -5.994213     1.307174     0.478419 C          1 UNL1 0.000
     6 C      -7.024594     2.271298     0.505071 C          1 UNL1 0.000
     7 N      -3.869374     0.611042     0.394232 N          1 UNL1 0.000
     8 C      -4.648067    -0.534569     0.448699 C          1 UNL1 0.000
     9 C      -4.287944    -1.894441     0.448916 C          1 UNL1 0.000
    10 C      -5.309320    -2.846555     0.503489 C          1 UNL1 0.000
    11 C      -6.644468    -2.459769     0.557180 C          1 UNL1 0.000
    12 C      -6.992579    -1.104979     0.556839 C          1 UNL1 0.000
    13 C      -5.980719    -0.122631     0.500666 C          1 UNL1 0.000
    14 C      -2.456357     0.622704     0.341537 C          1 UNL1 0.000
    15 C      -1.779148     0.652148     1.562593 C          1 UNL1 0.000
    16 C      -0.390533     0.653144     1.564574 C          1 UNL1 0.000
    17 C       0.334188     0.625767     0.358713 C          1 UNL1 0.000
    18 C      -0.359835     0.602405    -0.890749 C          1 UNL1 0.000
    19 C      -1.780370     0.598996    -0.904102 C          1 UNL1 0.000
    20 C       0.315712     0.579961    -2.135499 C          1 UNL1 0.000
    21 C      -0.367357     0.555411    -3.351693 C          1 UNL1 0.000
    22 C      -1.751844     0.550462    -3.360913 C          1 UNL1 0.000
    23 C      -2.449058     0.571710    -2.154220 C          1 UNL1 0.000
    24 H      -7.497617     4.372891     0.479232 H          1 UNL1 0.000
    25 H      -5.140674     5.103403     0.354131 H          1 UNL1 0.000
    26 H      -3.301130     3.434733     0.306981 H          1 UNL1 0.000
    27 H      -8.064288     1.961207     0.556873 H          1 UNL1 0.000
    28 H      -3.247428    -2.202729     0.402206 H          1 UNL1 0.000
    29 H      -5.054941    -3.904070     0.501760 H          1 UNL1 0.000
    30 H      -7.425627    -3.214910     0.597941 H          1 UNL1 0.000
    31 H      -8.038095    -0.813235     0.596950 H          1 UNL1 0.000
    32 H      -2.322246     0.671402     2.504919 H          1 UNL1 0.000
    33 H       0.137412     0.673873     2.516711 H          1 UNL1 0.000
    34 H       1.403638     0.583863    -2.173356 H          1 UNL1 0.000
    35 H       0.186847     0.541177    -4.286371 H          1 UNL1 0.000
    36 H      -2.294267     0.531248    -4.302373 H          1 UNL1 0.000
    37 H      -3.536880     0.567796    -2.203538 H          1 UNL1 0.000
    38 C       1.804771     0.610814     0.436909 C          1 UNL1 0.000
    39 C       2.540119     1.801293     0.394692 C          1 UNL1 0.000
    40 C       3.938236     1.775726     0.434620 C          1 UNL1 0.000
    41 C       4.635048     0.560474     0.521954 C          1 UNL1 0.000
    42 C       3.903039    -0.629546     0.579573 C          1 UNL1 0.000
    43 C       2.502306    -0.601372     0.538386 C          1 UNL1 0.000
    44 C       6.131299     0.618322     0.539891 C          1 UNL1 0.000
    45 C       6.965159    -0.635530     0.620628 C          1 UNL1 0.000
    46 O       6.688988     1.715445     0.482821 O          1 UNL1 0.000
    47 H       2.027806     2.758645     0.317058 H          1 UNL1 0.000
    48 H       4.482208     2.718464     0.389885 H          1 UNL1 0.000
    49 H       4.377066    -1.601656     0.650547 H          1 UNL1 0.000
    50 H       1.951013    -1.540110     0.573618 H          1 UNL1 0.000
    51 H       7.607325    -0.684997    -0.263800 H          1 UNL1 0.000
    52 H       6.390371    -1.557386     0.665273 H          1 UNL1 0.000
    53 H       7.585889    -0.584240     1.519971 H          1 UNL1 0.000
@<TRIPOS>BOND
     1      1      2   2
     2      2      3   1
     3      3      4   2
     4      4      5   1
     5      5      6   2
     6      6      1   1
     7      4      7   1
     8      7      8   1
     9      8      9   2
    10      9     10   1
    11     10     11   2
    12     11     12   1
    13     12     13   2
    14     13      8   1
    15     13      5   1
    16     14     15   2
    17     15     16   1
    18     16     17   2
    19     17     18   1
    20     18     19   2
    21     19     14   1
    22     18     20   1
    23     20     21   2
    24     21     22   1
    25     22     23   2
    26     23     19   1
    27      7     14   1
    28      1     24   1
    29      2     25   1
    30      3     26   1
    31      6     27   1
    32      9     28   1
    33     10     29   1
    34     11     30   1
    35     12     31   1
    36     15     32   1
    37     16     33   1
    38     20     34   1
    39     21     35   1
    40     22     36   1
    41     23     37   1
    42     38     39   2
    43     39     40   1
    44     40     41   2
    45     41     42   1
    46     42     43   2
    47     43     38   1
    48     41     44   1
    49     44     45   1
    50     44     46   2
    51     39     47   1
    52     40     48   1
    53     42     49   1
    54     43     50   1
    55     45     51   1
    56     45     52   1
    57     45     53   1
    58     17     38   1
