# Produced with molli package
@<TRIPOS>MOLECULE
G_6_N
45 50 0 0 0
SMALL
USER_CHARGES

@<TRIPOS>ATOM
     1 C      -6.710356     3.606388     0.455121 C          1 UNL1 0.000
     2 C      -5.372385     3.985397     0.419011 C          1 UNL1 0.000
     3 C      -4.354680     3.028063     0.436395 C          1 UNL1 0.000
     4 C      -4.721473     1.671157     0.493012 C          1 UNL1 0.000
     5 C      -6.056906     1.266923     0.534098 C          1 UNL1 0.000
     6 C      -7.065049     2.254430     0.512328 C          1 UNL1 0.000
     7 N      -3.947501     0.521508     0.515145 N          1 UNL1 0.000
     8 C      -4.752452    -0.604330     0.586198 C          1 UNL1 0.000
     9 C      -4.422661    -1.971158     0.628176 C          1 UNL1 0.000
    10 C      -5.465930    -2.899280     0.676207 C          1 UNL1 0.000
    11 C      -6.793057    -2.482410     0.681742 C          1 UNL1 0.000
    12 C      -7.110929    -1.120743     0.639642 C          1 UNL1 0.000
    13 C      -6.076351    -0.162088     0.589697 C          1 UNL1 0.000
    14 C      -2.534566     0.498761     0.466728 C          1 UNL1 0.000
    15 C      -1.861020     0.450870     1.690654 C          1 UNL1 0.000
    16 C      -0.473296     0.434213     1.695940 C          1 UNL1 0.000
    17 C       0.239103     0.461410     0.486895 C          1 UNL1 0.000
    18 C      -0.437547     0.496935    -0.767263 C          1 UNL1 0.000
    19 C      -1.856923     0.518992    -0.780566 C          1 UNL1 0.000
    20 C       0.242308     0.509829    -2.010758 C          1 UNL1 0.000
    21 C      -0.439037     0.540026    -3.227585 C          1 UNL1 0.000
    22 C      -1.823691     0.560489    -3.238082 C          1 UNL1 0.000
    23 C      -2.522861     0.550525    -2.032129 C          1 UNL1 0.000
    24 H      -7.488461     4.365589     0.438661 H          1 UNL1 0.000
    25 H      -5.112632     5.040734     0.374946 H          1 UNL1 0.000
    26 H      -3.311743     3.330257     0.404160 H          1 UNL1 0.000
    27 H      -8.112673     1.968959     0.539927 H          1 UNL1 0.000
    28 H      -3.388432    -2.303143     0.615713 H          1 UNL1 0.000
    29 H      -5.234937    -3.961746     0.705767 H          1 UNL1 0.000
    30 H      -7.591527    -3.219489     0.716464 H          1 UNL1 0.000
    31 H      -8.150420    -0.805777     0.641538 H          1 UNL1 0.000
    32 H      -2.406866     0.433072     2.631375 H          1 UNL1 0.000
    33 H       0.056842     0.401288     2.645813 H          1 UNL1 0.000
    34 H       1.330423     0.493760    -2.044524 H          1 UNL1 0.000
    35 H       0.116036     0.546354    -4.161801 H          1 UNL1 0.000
    36 H      -2.365025     0.582806    -4.180148 H          1 UNL1 0.000
    37 H      -3.610582     0.564310    -2.083506 H          1 UNL1 0.000
    38 C       1.694801     0.442895     0.570836 C          1 UNL1 0.000
    39 C       2.419755     1.612596     0.683361 C          1 UNL1 0.000
    40 S       4.105899     1.323290     0.750629 S          1 UNL1 0.000
    41 C       3.876814    -0.368500     0.636938 C          1 UNL1 0.000
    42 C       2.543873    -0.706223     0.550466 C          1 UNL1 0.000
    43 H       2.045843     2.627164     0.722221 H          1 UNL1 0.000
    44 H       4.729958    -1.032926     0.638289 H          1 UNL1 0.000
    45 H       2.193311    -1.728108     0.468989 H          1 UNL1 0.000
@<TRIPOS>BOND
     1      1      2   2
     2      2      3   1
     3      3      4   2
     4      4      5   1
     5      5      6   2
     6      6      1   1
     7      4      7   1
     8      7      8   1
     9      8      9   2
    10      9     10   1
    11     10     11   2
    12     11     12   1
    13     12     13   2
    14     13      8   1
    15     13      5   1
    16     14     15   2
    17     15     16   1
    18     16     17   2
    19     17     18   1
    20     18     19   2
    21     19     14   1
    22     18     20   1
    23     20     21   2
    24     21     22   1
    25     22     23   2
    26     23     19   1
    27      7     14   1
    28      1     24   1
    29      2     25   1
    30      3     26   1
    31      6     27   1
    32      9     28   1
    33     10     29   1
    34     11     30   1
    35     12     31   1
    36     15     32   1
    37     16     33   1
    38     20     34   1
    39     21     35   1
    40     22     36   1
    41     23     37   1
    42     38     39   2
    43     39     40   1
    44     40     41   1
    45     41     42   2
    46     42     38   1
    47     39     43   1
    48     41     44   1
    49     42     45   1
    50     17     38   1
