# Produced with molli package
@<TRIPOS>MOLECULE
G_6_Q
46 51 0 0 0
SMALL
USER_CHARGES

@<TRIPOS>ATOM
     1 C      -6.761716     3.608031     0.421410 C          1 UNL1 0.000
     2 C      -5.435774     4.027279     0.384867 C          1 UNL1 0.000
     3 C      -4.390523     3.100380     0.360784 C          1 UNL1 0.000
     4 C      -4.717286     1.732308     0.374352 C          1 UNL1 0.000
     5 C      -6.039931     1.287509     0.409215 C          1 UNL1 0.000
     6 C      -7.076477     2.245037     0.434307 C          1 UNL1 0.000
     7 N      -3.910004     0.606473     0.345522 N          1 UNL1 0.000
     8 C      -4.681142    -0.544946     0.371599 C          1 UNL1 0.000
     9 C      -4.311054    -1.902107     0.361523 C          1 UNL1 0.000
    10 C      -5.325978    -2.861959     0.390511 C          1 UNL1 0.000
    11 C      -6.664505    -2.485091     0.427783 C          1 UNL1 0.000
    12 C      -7.022531    -1.132772     0.437313 C          1 UNL1 0.000
    13 C      -6.017171    -0.142588     0.409434 C          1 UNL1 0.000
    14 C      -2.496688     0.627818     0.313115 C          1 UNL1 0.000
    15 C      -1.839499     0.683312     1.543422 C          1 UNL1 0.000
    16 C      -0.451670     0.693076     1.564903 C          1 UNL1 0.000
    17 C       0.292494     0.645824     0.370355 C          1 UNL1 0.000
    18 C      -0.381488     0.616096    -0.889422 C          1 UNL1 0.000
    19 C      -1.802336     0.599113    -0.922406 C          1 UNL1 0.000
    20 C       0.310498     0.614021    -2.125884 C          1 UNL1 0.000
    21 C      -0.356487     0.581985    -3.350980 C          1 UNL1 0.000
    22 C      -1.740534     0.553720    -3.378571 C          1 UNL1 0.000
    23 C      -2.453515     0.563778    -2.181275 C          1 UNL1 0.000
    24 H      -7.561536     4.344248     0.438476 H          1 UNL1 0.000
    25 H      -5.206906     5.090579     0.372480 H          1 UNL1 0.000
    26 H      -3.357023     3.433907     0.326462 H          1 UNL1 0.000
    27 H      -8.115006     1.928126     0.461249 H          1 UNL1 0.000
    28 H      -3.267770    -2.202579     0.329056 H          1 UNL1 0.000
    29 H      -5.063747    -3.917548     0.382601 H          1 UNL1 0.000
    30 H      -7.440533    -3.246272     0.449250 H          1 UNL1 0.000
    31 H      -8.070586    -0.849030     0.466114 H          1 UNL1 0.000
    32 H      -2.396297     0.715450     2.477294 H          1 UNL1 0.000
    33 H       0.063847     0.737339     2.523467 H          1 UNL1 0.000
    34 H       1.398335     0.656374    -2.153431 H          1 UNL1 0.000
    35 H       0.209350     0.586936    -4.278856 H          1 UNL1 0.000
    36 H      -2.270310     0.532995    -4.327199 H          1 UNL1 0.000
    37 H      -3.540710     0.551446    -2.245409 H          1 UNL1 0.000
    38 C       1.755483     0.613064     0.476636 C          1 UNL1 0.000
    39 N       2.371910     1.795842     0.728673 N          1 UNL1 0.000
    40 C       3.721615     1.749249     0.813777 C          1 UNL1 0.000
    41 C       4.437921     0.573616     0.664852 C          1 UNL1 0.000
    42 N       3.838703    -0.613439     0.424649 N          1 UNL1 0.000
    43 C       2.486174    -0.565996     0.336480 C          1 UNL1 0.000
    44 H       4.217407     2.694030     1.005378 H          1 UNL1 0.000
    45 H       5.519520     0.555831     0.735412 H          1 UNL1 0.000
    46 H       1.996745    -1.515302     0.144608 H          1 UNL1 0.000
@<TRIPOS>BOND
     1      1      2   2
     2      2      3   1
     3      3      4   2
     4      4      5   1
     5      5      6   2
     6      6      1   1
     7      4      7   1
     8      7      8   1
     9      8      9   2
    10      9     10   1
    11     10     11   2
    12     11     12   1
    13     12     13   2
    14     13      8   1
    15     13      5   1
    16     14     15   2
    17     15     16   1
    18     16     17   2
    19     17     18   1
    20     18     19   2
    21     19     14   1
    22     18     20   1
    23     20     21   2
    24     21     22   1
    25     22     23   2
    26     23     19   1
    27      7     14   1
    28      1     24   1
    29      2     25   1
    30      3     26   1
    31      6     27   1
    32      9     28   1
    33     10     29   1
    34     11     30   1
    35     12     31   1
    36     15     32   1
    37     16     33   1
    38     20     34   1
    39     21     35   1
    40     22     36   1
    41     23     37   1
    42     38     39   2
    43     39     40   1
    44     40     41   2
    45     41     42   1
    46     42     43   2
    47     43     38   1
    48     40     44   1
    49     41     45   1
    50     43     46   1
    51     17     38   1
