# Produced with molli package
@<TRIPOS>MOLECULE
G_6_M
49 54 0 0 0
SMALL
USER_CHARGES

@<TRIPOS>ATOM
     1 C      -6.654931     3.492614     0.429555 C          1 UNL1 0.000
     2 C      -5.322553     3.891536     0.455811 C          1 UNL1 0.000
     3 C      -4.291999     2.948756     0.493921 C          1 UNL1 0.000
     4 C      -4.640079     1.585829     0.507652 C          1 UNL1 0.000
     5 C      -5.969590     1.161650     0.484726 C          1 UNL1 0.000
     6 C      -6.990993     2.134768     0.443275 C          1 UNL1 0.000
     7 N      -3.849507     0.447227     0.526479 N          1 UNL1 0.000
     8 C      -4.639424    -0.691545     0.543547 C          1 UNL1 0.000
     9 C      -4.291498    -2.054230     0.569343 C          1 UNL1 0.000
    10 C      -5.322154    -2.997696     0.550337 C          1 UNL1 0.000
    11 C      -6.654370    -2.599834     0.504758 C          1 UNL1 0.000
    12 C      -6.990412    -1.242225     0.481951 C          1 UNL1 0.000
    13 C      -5.969146    -0.268352     0.503030 C          1 UNL1 0.000
    14 C      -2.436202     0.448336     0.478790 C          1 UNL1 0.000
    15 C      -1.758306     0.438812     1.699355 C          1 UNL1 0.000
    16 C      -0.369234     0.456647     1.699027 C          1 UNL1 0.000
    17 C       0.353636     0.483009     0.491625 C          1 UNL1 0.000
    18 C      -0.341862     0.489670    -0.757336 C          1 UNL1 0.000
    19 C      -1.761494     0.471073    -0.768480 C          1 UNL1 0.000
    20 C       0.331286     0.517206    -2.003758 C          1 UNL1 0.000
    21 C      -0.353196     0.520202    -3.219354 C          1 UNL1 0.000
    22 C      -1.737105     0.497848    -3.226667 C          1 UNL1 0.000
    23 C      -2.431507     0.474466    -2.018669 C          1 UNL1 0.000
    24 H      -7.443213     4.240686     0.396308 H          1 UNL1 0.000
    25 H      -5.077356     4.951161     0.443103 H          1 UNL1 0.000
    26 H      -3.253288     3.266301     0.507272 H          1 UNL1 0.000
    27 H      -8.034361     1.833722     0.419855 H          1 UNL1 0.000
    28 H      -3.252970    -2.371422     0.595670 H          1 UNL1 0.000
    29 H      -5.077201    -4.057338     0.566544 H          1 UNL1 0.000
    30 H      -7.442516    -3.348523     0.484429 H          1 UNL1 0.000
    31 H      -8.033540    -0.941853     0.443292 H          1 UNL1 0.000
    32 H      -2.300261     0.422683     2.642328 H          1 UNL1 0.000
    33 H       0.160252     0.451381     2.650548 H          1 UNL1 0.000
    34 H       1.418798     0.537283    -2.043900 H          1 UNL1 0.000
    35 H       0.199188     0.539961    -4.154953 H          1 UNL1 0.000
    36 H      -2.281718     0.499166    -4.167030 H          1 UNL1 0.000
    37 H      -3.519232     0.457434    -2.067610 H          1 UNL1 0.000
    38 C       1.824742     0.506596     0.563417 C          1 UNL1 0.000
    39 C       2.514681     1.722677     0.685741 C          1 UNL1 0.000
    40 C       3.912483     1.751919     0.706097 C          1 UNL1 0.000
    41 C       4.640041     0.562266     0.607466 C          1 UNL1 0.000
    42 C       3.963347    -0.656378     0.500610 C          1 UNL1 0.000
    43 C       2.565453    -0.682834     0.481514 C          1 UNL1 0.000
    44 C       6.073323     0.592888     0.604888 C          1 UNL1 0.000
    45 N       7.233739     0.618264     0.597175 N          1 UNL1 0.000
    46 H       1.960711     2.658013     0.749181 H          1 UNL1 0.000
    47 H       4.424780     2.708698     0.789728 H          1 UNL1 0.000
    48 H       4.515625    -1.591116     0.422501 H          1 UNL1 0.000
    49 H       2.051021    -1.637780     0.385278 H          1 UNL1 0.000
@<TRIPOS>BOND
     1      1      2   2
     2      2      3   1
     3      3      4   2
     4      4      5   1
     5      5      6   2
     6      6      1   1
     7      4      7   1
     8      7      8   1
     9      8      9   2
    10      9     10   1
    11     10     11   2
    12     11     12   1
    13     12     13   2
    14     13      8   1
    15     13      5   1
    16     14     15   2
    17     15     16   1
    18     16     17   2
    19     17     18   1
    20     18     19   2
    21     19     14   1
    22     18     20   1
    23     20     21   2
    24     21     22   1
    25     22     23   2
    26     23     19   1
    27      7     14   1
    28      1     24   1
    29      2     25   1
    30      3     26   1
    31      6     27   1
    32      9     28   1
    33     10     29   1
    34     11     30   1
    35     12     31   1
    36     15     32   1
    37     16     33   1
    38     20     34   1
    39     21     35   1
    40     22     36   1
    41     23     37   1
    42     38     39   2
    43     39     40   1
    44     40     41   2
    45     41     42   1
    46     42     43   2
    47     43     38   1
    48     44     45   3
    49     41     44   1
    50     39     46   1
    51     40     47   1
    52     42     48   1
    53     43     49   1
    54     17     38   1
