# Produced with molli package
@<TRIPOS>MOLECULE
G_6_T
51 56 0 0 0
SMALL
USER_CHARGES

@<TRIPOS>ATOM
     1 C      -6.733836     3.654921     0.512731 C          1 UNL1 0.000
     2 C      -5.402983     4.057510     0.468391 C          1 UNL1 0.000
     3 C      -4.369161     3.117663     0.455539 C          1 UNL1 0.000
     4 C      -4.712353     1.753976     0.490537 C          1 UNL1 0.000
     5 C      -6.040098     1.325894     0.537898 C          1 UNL1 0.000
     6 C      -7.064983     2.296191     0.547630 C          1 UNL1 0.000
     7 N      -3.918668     0.617905     0.476503 N          1 UNL1 0.000
     8 C      -4.703382    -0.523116     0.532930 C          1 UNL1 0.000
     9 C      -4.349559    -1.884526     0.544475 C          1 UNL1 0.000
    10 C      -5.375962    -2.831509     0.588713 C          1 UNL1 0.000
    11 C      -6.709929    -2.438084     0.618901 C          1 UNL1 0.000
    12 C      -7.051713    -1.081577     0.607026 C          1 UNL1 0.000
    13 C      -6.034488    -0.104142     0.563593 C          1 UNL1 0.000
    14 C      -2.506947     0.621395     0.401055 C          1 UNL1 0.000
    15 C      -1.808581     0.615941     1.610122 C          1 UNL1 0.000
    16 C      -0.420200     0.616773     1.586063 C          1 UNL1 0.000
    17 C       0.282011     0.620643     0.366567 C          1 UNL1 0.000
    18 C      -0.434049     0.623245    -0.870260 C          1 UNL1 0.000
    19 C      -1.854295     0.625052    -0.857646 C          1 UNL1 0.000
    20 C       0.218742     0.620220    -2.127212 C          1 UNL1 0.000
    21 C      -0.485734     0.621695    -3.331326 C          1 UNL1 0.000
    22 C      -1.870208     0.624994    -3.315723 C          1 UNL1 0.000
    23 C      -2.545090     0.626079    -2.096282 C          1 UNL1 0.000
    24 H      -7.524768     4.400841     0.519414 H          1 UNL1 0.000
    25 H      -5.161471     5.117679     0.440800 H          1 UNL1 0.000
    26 H      -3.331780     3.437621     0.415277 H          1 UNL1 0.000
    27 H      -8.107195     1.992225     0.580808 H          1 UNL1 0.000
    28 H      -3.309768    -2.197633     0.513865 H          1 UNL1 0.000
    29 H      -5.126153    -3.890085     0.596305 H          1 UNL1 0.000
    30 H      -7.495007    -3.189541     0.650194 H          1 UNL1 0.000
    31 H      -8.096320    -0.784888     0.628628 H          1 UNL1 0.000
    32 H      -2.333883     0.612703     2.562408 H          1 UNL1 0.000
    33 H       0.127111     0.614909     2.527414 H          1 UNL1 0.000
    34 H       1.306311     0.614646    -2.182814 H          1 UNL1 0.000
    35 H       0.052031     0.619119    -4.275482 H          1 UNL1 0.000
    36 H      -2.429646     0.625215    -4.247225 H          1 UNL1 0.000
    37 H      -3.633651     0.626296    -2.126163 H          1 UNL1 0.000
    38 C       1.753951     0.618391     0.417498 C          1 UNL1 0.000
    39 C       2.475508     1.819232     0.357328 C          1 UNL1 0.000
    40 C       3.873235     1.814688     0.369912 C          1 UNL1 0.000
    41 C       4.576949     0.608802     0.455324 C          1 UNL1 0.000
    42 C       3.861921    -0.592359     0.520249 C          1 UNL1 0.000
    43 C       2.464549    -0.586906     0.506047 C          1 UNL1 0.000
    44 C       6.076538     0.589398     0.428293 C          1 UNL1 0.000
    45 H       1.947171     2.767799     0.285096 H          1 UNL1 0.000
    46 H       4.406040     2.760759     0.307026 H          1 UNL1 0.000
    47 H       4.388937    -1.542288     0.575455 H          1 UNL1 0.000
    48 H       1.928258    -1.532674     0.549385 H          1 UNL1 0.000
    49 H       6.428191     0.238973    -0.547291 H          1 UNL1 0.000
    50 H       6.464658    -0.072927     1.208955 H          1 UNL1 0.000
    51 H       6.492158     1.586643     0.606304 H          1 UNL1 0.000
@<TRIPOS>BOND
     1      1      2   2
     2      2      3   1
     3      3      4   2
     4      4      5   1
     5      5      6   2
     6      6      1   1
     7      4      7   1
     8      7      8   1
     9      8      9   2
    10      9     10   1
    11     10     11   2
    12     11     12   1
    13     12     13   2
    14     13      8   1
    15     13      5   1
    16     14     15   2
    17     15     16   1
    18     16     17   2
    19     17     18   1
    20     18     19   2
    21     19     14   1
    22     18     20   1
    23     20     21   2
    24     21     22   1
    25     22     23   2
    26     23     19   1
    27      7     14   1
    28      1     24   1
    29      2     25   1
    30      3     26   1
    31      6     27   1
    32      9     28   1
    33     10     29   1
    34     11     30   1
    35     12     31   1
    36     15     32   1
    37     16     33   1
    38     20     34   1
    39     21     35   1
    40     22     36   1
    41     23     37   1
    42     38     39   2
    43     39     40   1
    44     40     41   2
    45     41     42   1
    46     42     43   2
    47     43     38   1
    48     41     44   1
    49     39     45   1
    50     40     46   1
    51     42     47   1
    52     43     48   1
    53     44     49   1
    54     44     50   1
    55     44     51   1
    56     17     38   1
