# Produced with molli package
@<TRIPOS>MOLECULE
G_6_P
52 57 0 0 0
SMALL
USER_CHARGES

@<TRIPOS>ATOM
     1 C      -6.616009     3.548236     0.480540 C          1 UNL1 0.000
     2 C      -5.284251     3.945619     0.419449 C          1 UNL1 0.000
     3 C      -4.253534     3.002212     0.411061 C          1 UNL1 0.000
     4 C      -4.600848     1.640269     0.466882 C          1 UNL1 0.000
     5 C      -5.929696     1.217494     0.530819 C          1 UNL1 0.000
     6 C      -6.951287     2.191272     0.536038 C          1 UNL1 0.000
     7 N      -3.810880     0.501448     0.469690 N          1 UNL1 0.000
     8 C      -4.599611    -0.635962     0.544050 C          1 UNL1 0.000
     9 C      -4.250614    -1.998558     0.567788 C          1 UNL1 0.000
    10 C      -5.279981    -2.941419     0.627181 C          1 UNL1 0.000
    11 C      -6.612257    -2.542863     0.661886 C          1 UNL1 0.000
    12 C      -6.949296    -1.185308     0.637538 C          1 UNL1 0.000
    13 C      -5.928991    -0.212037     0.575753 C          1 UNL1 0.000
    14 C      -2.398506     0.497126     0.408977 C          1 UNL1 0.000
    15 C      -1.714149     0.439853     1.624986 C          1 UNL1 0.000
    16 C      -0.326154     0.416672     1.616961 C          1 UNL1 0.000
    17 C       0.390487     0.443775     0.406163 C          1 UNL1 0.000
    18 C      -0.310702     0.505153    -0.837647 C          1 UNL1 0.000
    19 C      -1.730536     0.531310    -0.841260 C          1 UNL1 0.000
    20 C       0.357710     0.535290    -2.086096 C          1 UNL1 0.000
    21 C      -0.332461     0.582310    -3.297606 C          1 UNL1 0.000
    22 C      -1.716772     0.601936    -3.298094 C          1 UNL1 0.000
    23 C      -2.406652     0.577315    -2.087156 C          1 UNL1 0.000
    24 H      -7.404449     4.296826     0.484804 H          1 UNL1 0.000
    25 H      -5.039635     5.004554     0.376159 H          1 UNL1 0.000
    26 H      -3.215465     3.318249     0.359759 H          1 UNL1 0.000
    27 H      -7.994142     1.891273     0.582909 H          1 UNL1 0.000
    28 H      -3.212281    -2.315989     0.532633 H          1 UNL1 0.000
    29 H      -5.033864    -4.000783     0.642632 H          1 UNL1 0.000
    30 H      -7.399765    -3.291169     0.705430 H          1 UNL1 0.000
    31 H      -7.992740    -0.884761     0.661853 H          1 UNL1 0.000
    32 H      -2.250997     0.412685     2.570580 H          1 UNL1 0.000
    33 H       0.208923     0.368139     2.564082 H          1 UNL1 0.000
    34 H       1.445581     0.519713    -2.129726 H          1 UNL1 0.000
    35 H       0.216707     0.600785    -4.235141 H          1 UNL1 0.000
    36 H      -2.264790     0.634942    -4.235865 H          1 UNL1 0.000
    37 H      -3.494534     0.591114    -2.129810 H          1 UNL1 0.000
    38 C       1.860191     0.383628     0.474148 C          1 UNL1 0.000
    39 C       2.624925     1.553242     0.602722 C          1 UNL1 0.000
    40 C       4.021884     1.492947     0.644842 C          1 UNL1 0.000
    41 C       4.665975     0.258567     0.570851 C          1 UNL1 0.000
    42 C       3.919990    -0.908467     0.422987 C          1 UNL1 0.000
    43 C       2.525513    -0.848803     0.388395 C          1 UNL1 0.000
    44 O       6.026329     0.114749     0.564611 O          1 UNL1 0.000
    45 C       6.670537     0.824861     1.619208 C          1 UNL1 0.000
    46 H       2.131938     2.522280     0.650635 H          1 UNL1 0.000
    47 H       4.586967     2.417401     0.705912 H          1 UNL1 0.000
    48 H       4.424448    -1.867198     0.340061 H          1 UNL1 0.000
    49 H       1.956188    -1.769560     0.279200 H          1 UNL1 0.000
    50 H       7.706638     0.476240     1.669349 H          1 UNL1 0.000
    51 H       6.198592     0.615951     2.585913 H          1 UNL1 0.000
    52 H       6.691015     1.900552     1.420476 H          1 UNL1 0.000
@<TRIPOS>BOND
     1      1      2   2
     2      2      3   1
     3      3      4   2
     4      4      5   1
     5      5      6   2
     6      6      1   1
     7      4      7   1
     8      7      8   1
     9      8      9   2
    10      9     10   1
    11     10     11   2
    12     11     12   1
    13     12     13   2
    14     13      8   1
    15     13      5   1
    16     14     15   2
    17     15     16   1
    18     16     17   2
    19     17     18   1
    20     18     19   2
    21     19     14   1
    22     18     20   1
    23     20     21   2
    24     21     22   1
    25     22     23   2
    26     23     19   1
    27      7     14   1
    28      1     24   1
    29      2     25   1
    30      3     26   1
    31      6     27   1
    32      9     28   1
    33     10     29   1
    34     11     30   1
    35     12     31   1
    36     15     32   1
    37     16     33   1
    38     20     34   1
    39     21     35   1
    40     22     36   1
    41     23     37   1
    42     38     39   2
    43     39     40   1
    44     40     41   2
    45     41     42   1
    46     42     43   2
    47     43     38   1
    48     44     45   1
    49     41     44   1
    50     39     46   1
    51     40     47   1
    52     42     48   1
    53     43     49   1
    54     45     50   1
    55     45     51   1
    56     45     52   1
    57     17     38   1
