# Produced with molli package
@<TRIPOS>MOLECULE
G_6_K
50 55 0 0 0
SMALL
USER_CHARGES

@<TRIPOS>ATOM
     1 C      -6.721851     3.603521     0.630405 C          1 UNL1 0.000
     2 C      -5.390536     4.005959     0.603227 C          1 UNL1 0.000
     3 C      -4.357791     3.066103     0.554149 C          1 UNL1 0.000
     4 C      -4.702557     1.702477     0.532958 C          1 UNL1 0.000
     5 C      -6.031051     1.274669     0.557396 C          1 UNL1 0.000
     6 C      -7.054658     2.244964     0.608771 C          1 UNL1 0.000
     7 N      -3.910702     0.567049     0.467817 N          1 UNL1 0.000
     8 C      -4.697385    -0.574129     0.464598 C          1 UNL1 0.000
     9 C      -4.345630    -1.935352     0.416822 C          1 UNL1 0.000
    10 C      -5.373384    -2.881867     0.422278 C          1 UNL1 0.000
    11 C      -6.706623    -2.488149     0.472692 C          1 UNL1 0.000
    12 C      -7.046324    -1.131919     0.520314 C          1 UNL1 0.000
    13 C      -6.027684    -0.155038     0.517988 C          1 UNL1 0.000
    14 C      -2.497892     0.571858     0.415732 C          1 UNL1 0.000
    15 C      -1.821213     0.622500     1.636039 C          1 UNL1 0.000
    16 C      -0.433007     0.614329     1.637892 C          1 UNL1 0.000
    17 C       0.291659     0.561825     0.432496 C          1 UNL1 0.000
    18 C      -0.402006     0.523930    -0.816975 C          1 UNL1 0.000
    19 C      -1.822305     0.525065    -0.829705 C          1 UNL1 0.000
    20 C       0.272494     0.491034    -2.062356 C          1 UNL1 0.000
    21 C      -0.411446     0.456539    -3.277947 C          1 UNL1 0.000
    22 C      -1.795798     0.455157    -3.286273 C          1 UNL1 0.000
    23 C      -2.491780     0.489707    -2.079344 C          1 UNL1 0.000
    24 H      -7.512016     4.349501     0.666032 H          1 UNL1 0.000
    25 H      -5.148175     5.066237     0.616626 H          1 UNL1 0.000
    26 H      -3.320398     3.386804     0.524939 H          1 UNL1 0.000
    27 H      -8.097373     1.941319     0.627337 H          1 UNL1 0.000
    28 H      -3.306458    -2.248834     0.374026 H          1 UNL1 0.000
    29 H      -5.125443    -3.940296     0.385267 H          1 UNL1 0.000
    30 H      -7.492832    -3.239144     0.474860 H          1 UNL1 0.000
    31 H      -8.090446    -0.835102     0.559060 H          1 UNL1 0.000
    32 H      -2.364444     0.658338     2.577844 H          1 UNL1 0.000
    33 H       0.094057     0.643558     2.590317 H          1 UNL1 0.000
    34 H       1.360091     0.496840    -2.102215 H          1 UNL1 0.000
    35 H       0.141562     0.433354    -4.213214 H          1 UNL1 0.000
    36 H      -2.339263     0.430664    -4.227077 H          1 UNL1 0.000
    37 H      -3.579672     0.493123    -2.128474 H          1 UNL1 0.000
    38 C       1.762524     0.545157     0.513414 C          1 UNL1 0.000
    39 C       2.468093    -0.668283     0.434374 C          1 UNL1 0.000
    40 C       3.864371    -0.689045     0.484028 C          1 UNL1 0.000
    41 C       4.562248     0.515644     0.624280 C          1 UNL1 0.000
    42 C       3.880007     1.733808     0.718910 C          1 UNL1 0.000
    43 C       2.483638     1.742215     0.661919 C          1 UNL1 0.000
    44 N       6.025617     0.501894     0.665374 N          1 UNL1 0.000
    45 O       6.603982    -0.476875     0.172697 O          1 UNL1 0.000
    46 O       6.593988     1.471169     1.188053 O          1 UNL1 0.000
    47 H       1.924418    -1.605660     0.322745 H          1 UNL1 0.000
    48 H       4.387049    -1.640600     0.412745 H          1 UNL1 0.000
    49 H       4.415519     2.674826     0.826221 H          1 UNL1 0.000
    50 H       1.953274     2.691634     0.723136 H          1 UNL1 0.000
@<TRIPOS>BOND
     1      1      2   2
     2      2      3   1
     3      3      4   2
     4      4      5   1
     5      5      6   2
     6      6      1   1
     7      4      7   1
     8      7      8   1
     9      8      9   2
    10      9     10   1
    11     10     11   2
    12     11     12   1
    13     12     13   2
    14     13      8   1
    15     13      5   1
    16     14     15   2
    17     15     16   1
    18     16     17   2
    19     17     18   1
    20     18     19   2
    21     19     14   1
    22     18     20   1
    23     20     21   2
    24     21     22   1
    25     22     23   2
    26     23     19   1
    27      7     14   1
    28      1     24   1
    29      2     25   1
    30      3     26   1
    31      6     27   1
    32      9     28   1
    33     10     29   1
    34     11     30   1
    35     12     31   1
    36     15     32   1
    37     16     33   1
    38     20     34   1
    39     21     35   1
    40     22     36   1
    41     23     37   1
    42     38     39   2
    43     39     40   1
    44     40     41   2
    45     41     42   1
    46     42     43   2
    47     43     38   1
    48     44     45   2
    49     44     46   1
    50     41     44   1
    51     39     47   1
    52     40     48   1
    53     42     49   1
    54     43     50   1
    55     17     38   1
