# Produced with molli package
@<TRIPOS>MOLECULE
G_7_O
45 49 0 0 0
SMALL
USER_CHARGES

@<TRIPOS>ATOM
     1 C      -8.958526     3.562379     2.010809 C          1 UNL1 0.000
     2 C      -7.631059     3.976021     2.010156 C          1 UNL1 0.000
     3 C      -6.590611     3.045485     1.949714 C          1 UNL1 0.000
     4 C      -6.920387     1.678092     1.886935 C          1 UNL1 0.000
     5 C      -8.246459     1.242042     1.870174 C          1 UNL1 0.000
     6 C      -9.278514     2.202376     1.944954 C          1 UNL1 0.000
     7 N      -6.117409     0.551963     1.771439 N          1 UNL1 0.000
     8 C      -6.900240    -0.591066     1.690596 C          1 UNL1 0.000
     9 C      -6.544439    -1.950694     1.606325 C          1 UNL1 0.000
    10 C      -7.566721    -2.903193     1.589637 C          1 UNL1 0.000
    11 C      -8.901442    -2.518286     1.651891 C          1 UNL1 0.000
    12 C      -9.246993    -1.165773     1.738226 C          1 UNL1 0.000
    13 C      -8.233303    -0.183751     1.769489 C          1 UNL1 0.000
    14 C      -4.705453     0.570411     1.724080 C          1 UNL1 0.000
    15 C      -3.984873     0.996181     2.840851 C          1 UNL1 0.000
    16 C      -2.589485     1.014624     2.783461 C          1 UNL1 0.000
    17 C      -1.912377     0.636126     1.613426 C          1 UNL1 0.000
    18 C      -2.661466     0.242514     0.493510 C          1 UNL1 0.000
    19 C      -4.055713     0.184722     0.550631 C          1 UNL1 0.000
    20 C      -0.444951     0.731408     1.588057 C          1 UNL1 0.000
    21 C       0.359051    -0.045879     0.842020 C          1 UNL1 0.000
    22 H      -9.755361     4.300620     2.054052 H          1 UNL1 0.000
    23 H      -7.396834     5.037466     2.048690 H          1 UNL1 0.000
    24 H      -5.556987     3.379148     1.930203 H          1 UNL1 0.000
    25 H     -10.318689     1.889929     1.936126 H          1 UNL1 0.000
    26 H      -5.504062    -2.261540     1.576420 H          1 UNL1 0.000
    27 H      -7.312429    -3.959317     1.535560 H          1 UNL1 0.000
    28 H      -9.683715    -3.273151     1.641688 H          1 UNL1 0.000
    29 H     -10.292120    -0.875527     1.794748 H          1 UNL1 0.000
    30 H      -4.490960     1.281970     3.759938 H          1 UNL1 0.000
    31 H      -2.030872     1.322592     3.665273 H          1 UNL1 0.000
    32 H      -2.170328    -0.004279    -0.444220 H          1 UNL1 0.000
    33 H      -4.619663    -0.111083    -0.330885 H          1 UNL1 0.000
    34 H      -0.010370     1.486359     2.241363 H          1 UNL1 0.000
    35 H      -0.056922    -0.819079     0.205328 H          1 UNL1 0.000
    36 C       1.825541     0.067156     0.828010 C          1 UNL1 0.000
    37 N       2.392426     0.999548     1.629754 N          1 UNL1 0.000
    38 C       3.739367     1.101568     1.609236 C          1 UNL1 0.000
    39 C       4.560738     0.313861     0.821510 C          1 UNL1 0.000
    40 C       3.965505    -0.638096     0.004158 C          1 UNL1 0.000
    41 C       2.578349    -0.766357     0.005128 C          1 UNL1 0.000
    42 H       4.154320     1.860643     2.266050 H          1 UNL1 0.000
    43 H       5.637158     0.439825     0.844759 H          1 UNL1 0.000
    44 H       4.574116    -1.276146    -0.630069 H          1 UNL1 0.000
    45 H       2.103147    -1.505914    -0.630423 H          1 UNL1 0.000
@<TRIPOS>BOND
     1      1      2   2
     2      2      3   1
     3      3      4   2
     4      4      5   1
     5      5      6   2
     6      6      1   1
     7      4      7   1
     8      7      8   1
     9      8      9   2
    10      9     10   1
    11     10     11   2
    12     11     12   1
    13     12     13   2
    14     13      8   1
    15     13      5   1
    16     14     15   2
    17     15     16   1
    18     16     17   2
    19     17     18   1
    20     18     19   2
    21     19     14   1
    22     17     20   1
    23     20     21   2
    24      7     14   1
    25      1     22   1
    26      2     23   1
    27      3     24   1
    28      6     25   1
    29      9     26   1
    30     10     27   1
    31     11     28   1
    32     12     29   1
    33     15     30   1
    34     16     31   1
    35     18     32   1
    36     19     33   1
    37     20     34   1
    38     21     35   1
    39     36     37   2
    40     37     38   1
    41     38     39   2
    42     39     40   1
    43     40     41   2
    44     41     36   1
    45     38     42   1
    46     39     43   1
    47     40     44   1
    48     41     45   1
    49     21     36   1
