# Produced with molli package
@<TRIPOS>MOLECULE
G_7_R
47 51 0 0 0
SMALL
USER_CHARGES

@<TRIPOS>ATOM
     1 C      -8.897019     3.559178     1.971635 C          1 UNL1 0.000
     2 C      -7.560288     3.941684     1.991567 C          1 UNL1 0.000
     3 C      -6.540203     2.986470     1.971730 C          1 UNL1 0.000
     4 C      -6.900328     1.626145     1.928136 C          1 UNL1 0.000
     5 C      -8.236544     1.221031     1.894912 C          1 UNL1 0.000
     6 C      -9.247223     2.206074     1.927842 C          1 UNL1 0.000
     7 N      -6.123616     0.479169     1.843354 N          1 UNL1 0.000
     8 C      -6.933164    -0.646608     1.781198 C          1 UNL1 0.000
     9 C      -6.608284    -2.015908     1.735504 C          1 UNL1 0.000
    10 C      -7.652049    -2.944392     1.718508 C          1 UNL1 0.000
    11 C      -8.978031    -2.526823     1.743648 C          1 UNL1 0.000
    12 C      -9.292855    -1.164875     1.794100 C          1 UNL1 0.000
    13 C      -8.256793    -0.206422     1.825251 C          1 UNL1 0.000
    14 C      -4.711525     0.458785     1.788486 C          1 UNL1 0.000
    15 C      -3.970189     0.863737     2.900770 C          1 UNL1 0.000
    16 C      -2.575444     0.800650     2.847488 C          1 UNL1 0.000
    17 C      -1.926947     0.380256     1.677894 C          1 UNL1 0.000
    18 C      -2.689236    -0.009873     0.567535 C          1 UNL1 0.000
    19 C      -4.082882     0.013416     0.623216 C          1 UNL1 0.000
    20 C      -0.463460     0.309520     1.646975 C          1 UNL1 0.000
    21 C       0.268812     0.932125     0.709022 C          1 UNL1 0.000
    22 H      -9.677458     4.316007     1.981774 H          1 UNL1 0.000
    23 H      -7.303147     4.998293     2.013766 H          1 UNL1 0.000
    24 H      -5.499156     3.295978     1.967747 H          1 UNL1 0.000
    25 H     -10.294048     1.917203     1.903310 H          1 UNL1 0.000
    26 H      -5.575201    -2.351849     1.732942 H          1 UNL1 0.000
    27 H      -7.421579    -4.007045     1.692149 H          1 UNL1 0.000
    28 H      -9.777576    -3.263359     1.731916 H          1 UNL1 0.000
    29 H     -10.331803    -0.849372     1.821791 H          1 UNL1 0.000
    30 H      -4.462004     1.183085     3.816638 H          1 UNL1 0.000
    31 H      -1.996788     1.082218     3.724758 H          1 UNL1 0.000
    32 H      -2.201488    -0.348423    -0.343737 H          1 UNL1 0.000
    33 H      -4.662673    -0.288593    -0.245879 H          1 UNL1 0.000
    34 H       0.006535    -0.267322     2.440418 H          1 UNL1 0.000
    35 H      -0.217482     1.534472    -0.052950 H          1 UNL1 0.000
    36 C       1.734077     0.868308     0.644950 C          1 UNL1 0.000
    37 N       2.347973    -0.127923     1.334732 N          1 UNL1 0.000
    38 C       3.698399    -0.206046     1.257810 C          1 UNL1 0.000
    39 C       4.453879     0.693847     0.531581 C          1 UNL1 0.000
    40 C       3.830451     1.721414    -0.170145 C          1 UNL1 0.000
    41 C       2.438894     1.798828    -0.120569 C          1 UNL1 0.000
    42 N       5.888187     0.560412     0.516114 N          1 UNL1 0.000
    43 O       6.551333     1.561513     0.806122 O          1 UNL1 0.000
    44 O       6.347898    -0.549037     0.208890 O          1 UNL1 0.000
    45 H       4.146155    -1.023848     1.816330 H          1 UNL1 0.000
    46 H       4.402585     2.442228    -0.747601 H          1 UNL1 0.000
    47 H       1.919546     2.583214    -0.663176 H          1 UNL1 0.000
@<TRIPOS>BOND
     1      1      2   2
     2      2      3   1
     3      3      4   2
     4      4      5   1
     5      5      6   2
     6      6      1   1
     7      4      7   1
     8      7      8   1
     9      8      9   2
    10      9     10   1
    11     10     11   2
    12     11     12   1
    13     12     13   2
    14     13      8   1
    15     13      5   1
    16     14     15   2
    17     15     16   1
    18     16     17   2
    19     17     18   1
    20     18     19   2
    21     19     14   1
    22     17     20   1
    23     20     21   2
    24      7     14   1
    25      1     22   1
    26      2     23   1
    27      3     24   1
    28      6     25   1
    29      9     26   1
    30     10     27   1
    31     11     28   1
    32     12     29   1
    33     15     30   1
    34     16     31   1
    35     18     32   1
    36     19     33   1
    37     20     34   1
    38     21     35   1
    39     36     37   2
    40     37     38   1
    41     38     39   2
    42     39     40   1
    43     40     41   2
    44     41     36   1
    45     42     43   2
    46     42     44   1
    47     39     42   1
    48     38     45   1
    49     40     46   1
    50     41     47   1
    51     21     36   1
