# Produced with molli package
@<TRIPOS>MOLECULE
G_7_T
49 53 0 0 0
SMALL
USER_CHARGES

@<TRIPOS>ATOM
     1 C      -8.893905     3.543675     2.117472 C          1 UNL1 0.000
     2 C      -7.561953     3.942478     2.077078 C          1 UNL1 0.000
     3 C      -6.533854     3.001487     1.974234 C          1 UNL1 0.000
     4 C      -6.883134     1.639956     1.909652 C          1 UNL1 0.000
     5 C      -8.213460     1.217055     1.941229 C          1 UNL1 0.000
     6 C      -9.231891     2.187899     2.053633 C          1 UNL1 0.000
     7 N      -6.098681     0.505877     1.771540 N          1 UNL1 0.000
     8 C      -6.892040    -0.630074     1.729534 C          1 UNL1 0.000
     9 C      -6.548731    -1.991319     1.631725 C          1 UNL1 0.000
    10 C      -7.579350    -2.934638     1.643503 C          1 UNL1 0.000
    11 C      -8.908587    -2.538156     1.745695 C          1 UNL1 0.000
    12 C      -9.240575    -1.182720     1.843625 C          1 UNL1 0.000
    13 C      -8.218053    -0.209612     1.843740 C          1 UNL1 0.000
    14 C      -4.691254     0.504398     1.680495 C          1 UNL1 0.000
    15 C      -3.931633     0.684679     2.836300 C          1 UNL1 0.000
    16 C      -2.538885     0.640163     2.743592 C          1 UNL1 0.000
    17 C      -1.906194     0.451316     1.504497 C          1 UNL1 0.000
    18 C      -2.694046     0.275581     0.356347 C          1 UNL1 0.000
    19 C      -4.088234     0.293592     0.439919 C          1 UNL1 0.000
    20 C      -0.437954     0.376322     1.466333 C          1 UNL1 0.000
    21 C       0.317933     0.828579     0.456379 C          1 UNL1 0.000
    22 H      -9.680502     4.290214     2.194583 H          1 UNL1 0.000
    23 H      -7.315320     5.000936     2.120547 H          1 UNL1 0.000
    24 H      -5.496424     3.320684     1.931617 H          1 UNL1 0.000
    25 H     -10.275098     1.886719     2.081224 H          1 UNL1 0.000
    26 H      -5.512019    -2.308299     1.562283 H          1 UNL1 0.000
    27 H      -7.336153    -3.992622     1.576231 H          1 UNL1 0.000
    28 H      -9.697228    -3.286434     1.754675 H          1 UNL1 0.000
    29 H     -10.281317    -0.883806     1.928409 H          1 UNL1 0.000
    30 H      -4.406845     0.826206     3.803885 H          1 UNL1 0.000
    31 H      -1.947975     0.756301     3.650036 H          1 UNL1 0.000
    32 H      -2.231332     0.107875    -0.613167 H          1 UNL1 0.000
    33 H      -4.686657     0.157420    -0.457682 H          1 UNL1 0.000
    34 H       0.032849    -0.054382     2.349111 H          1 UNL1 0.000
    35 H      -0.109562     1.312476    -0.417862 H          1 UNL1 0.000
    36 C       1.781434     0.748764     0.491262 C          1 UNL1 0.000
    37 C       2.440246    -0.481843     0.584925 C          1 UNL1 0.000
    38 C       3.836916    -0.535810     0.617423 C          1 UNL1 0.000
    39 C       4.593301     0.639416     0.549662 C          1 UNL1 0.000
    40 C       3.931619     1.869431     0.453800 C          1 UNL1 0.000
    41 C       2.535597     1.922912     0.416882 C          1 UNL1 0.000
    42 C       6.091370     0.597318     0.612197 C          1 UNL1 0.000
    43 H       1.872152    -1.408026     0.629915 H          1 UNL1 0.000
    44 H       4.327500    -1.503323     0.695326 H          1 UNL1 0.000
    45 H       4.500191     2.795613     0.410155 H          1 UNL1 0.000
    46 H       2.042446     2.889514     0.345382 H          1 UNL1 0.000
    47 H       6.437695     0.996533     1.570761 H          1 UNL1 0.000
    48 H       6.522955     1.189764    -0.201158 H          1 UNL1 0.000
    49 H       6.468005    -0.425834     0.511125 H          1 UNL1 0.000
@<TRIPOS>BOND
     1      1      2   2
     2      2      3   1
     3      3      4   2
     4      4      5   1
     5      5      6   2
     6      6      1   1
     7      4      7   1
     8      7      8   1
     9      8      9   2
    10      9     10   1
    11     10     11   2
    12     11     12   1
    13     12     13   2
    14     13      8   1
    15     13      5   1
    16     14     15   2
    17     15     16   1
    18     16     17   2
    19     17     18   1
    20     18     19   2
    21     19     14   1
    22     17     20   1
    23     20     21   2
    24      7     14   1
    25      1     22   1
    26      2     23   1
    27      3     24   1
    28      6     25   1
    29      9     26   1
    30     10     27   1
    31     11     28   1
    32     12     29   1
    33     15     30   1
    34     16     31   1
    35     18     32   1
    36     19     33   1
    37     20     34   1
    38     21     35   1
    39     36     37   2
    40     37     38   1
    41     38     39   2
    42     39     40   1
    43     40     41   2
    44     41     36   1
    45     39     42   1
    46     37     43   1
    47     38     44   1
    48     40     45   1
    49     41     46   1
    50     42     47   1
    51     42     48   1
    52     42     49   1
    53     21     36   1
