# Produced with molli package
@<TRIPOS>MOLECULE
G_7_Q
44 48 0 0 0
SMALL
USER_CHARGES

@<TRIPOS>ATOM
     1 C      -8.984104     3.523775     1.600545 C          1 UNL1 0.000
     2 C      -7.661375     3.941123     1.514659 C          1 UNL1 0.000
     3 C      -6.615772     3.014886     1.538951 C          1 UNL1 0.000
     4 C      -6.932085     1.646193     1.650816 C          1 UNL1 0.000
     5 C      -8.253165     1.209658     1.762026 C          1 UNL1 0.000
     6 C      -9.292169     2.165148     1.722183 C          1 UNL1 0.000
     7 N      -6.116325     0.523489     1.744367 N          1 UNL1 0.000
     8 C      -6.892928    -0.616561     1.915074 C          1 UNL1 0.000
     9 C      -6.536859    -1.975980     2.012950 C          1 UNL1 0.000
    10 C      -7.556920    -2.925178     2.123363 C          1 UNL1 0.000
    11 C      -8.892214    -2.539310     2.135018 C          1 UNL1 0.000
    12 C      -9.240221    -1.189428     2.030218 C          1 UNL1 0.000
    13 C      -8.229666    -0.211178     1.906359 C          1 UNL1 0.000
    14 C      -4.700850     0.548038     1.680590 C          1 UNL1 0.000
    15 C      -3.950344     0.051712     2.750833 C          1 UNL1 0.000
    16 C      -2.557382     0.150972     2.713452 C          1 UNL1 0.000
    17 C      -1.918386     0.708206     1.599210 C          1 UNL1 0.000
    18 C      -2.680231     1.168826     0.518280 C          1 UNL1 0.000
    19 C      -4.073213     1.106465     0.562682 C          1 UNL1 0.000
    20 C      -0.462961     0.843484     1.581996 C          1 UNL1 0.000
    21 C       0.320207     0.063801     0.819743 C          1 UNL1 0.000
    22 H      -9.785578     4.258029     1.584818 H          1 UNL1 0.000
    23 H      -7.433879     5.001901     1.437201 H          1 UNL1 0.000
    24 H      -5.585576     3.356450     1.495577 H          1 UNL1 0.000
    25 H     -10.328549     1.850132     1.802555 H          1 UNL1 0.000
    26 H      -5.498620    -2.292942     1.981318 H          1 UNL1 0.000
    27 H      -7.300816    -3.980083     2.191296 H          1 UNL1 0.000
    28 H      -9.673306    -3.291049     2.216452 H          1 UNL1 0.000
    29 H     -10.286615    -0.897847     2.029613 H          1 UNL1 0.000
    30 H      -4.434634    -0.355702     3.635372 H          1 UNL1 0.000
    31 H      -1.974151    -0.193940     3.564475 H          1 UNL1 0.000
    32 H      -2.192725     1.596753    -0.354922 H          1 UNL1 0.000
    33 H      -4.652933     1.471263    -0.282251 H          1 UNL1 0.000
    34 H      -0.049252     1.622191     2.218491 H          1 UNL1 0.000
    35 H      -0.117757    -0.718207     0.206251 H          1 UNL1 0.000
    36 C       1.779862     0.207415     0.754039 C          1 UNL1 0.000
    37 N       2.336645     1.303645     1.327672 N          1 UNL1 0.000
    38 C       3.680884     1.412319     1.217845 C          1 UNL1 0.000
    39 C       4.453604     0.466202     0.567539 C          1 UNL1 0.000
    40 N       3.917617    -0.633244    -0.005830 N          1 UNL1 0.000
    41 C       2.568400    -0.736935     0.100711 C          1 UNL1 0.000
    42 H       4.123651     2.292512     1.669751 H          1 UNL1 0.000
    43 H       5.529769     0.569374     0.489379 H          1 UNL1 0.000
    44 H       2.137654    -1.618524    -0.361442 H          1 UNL1 0.000
@<TRIPOS>BOND
     1      1      2   2
     2      2      3   1
     3      3      4   2
     4      4      5   1
     5      5      6   2
     6      6      1   1
     7      4      7   1
     8      7      8   1
     9      8      9   2
    10      9     10   1
    11     10     11   2
    12     11     12   1
    13     12     13   2
    14     13      8   1
    15     13      5   1
    16     14     15   2
    17     15     16   1
    18     16     17   2
    19     17     18   1
    20     18     19   2
    21     19     14   1
    22     17     20   1
    23     20     21   2
    24      7     14   1
    25      1     22   1
    26      2     23   1
    27      3     24   1
    28      6     25   1
    29      9     26   1
    30     10     27   1
    31     11     28   1
    32     12     29   1
    33     15     30   1
    34     16     31   1
    35     18     32   1
    36     19     33   1
    37     20     34   1
    38     21     35   1
    39     36     37   2
    40     37     38   1
    41     38     39   2
    42     39     40   1
    43     40     41   2
    44     41     36   1
    45     38     42   1
    46     39     43   1
    47     41     44   1
    48     21     36   1
