# Produced with molli package
@<TRIPOS>MOLECULE
G_7_L
50 55 0 0 0
SMALL
USER_CHARGES

@<TRIPOS>ATOM
     1 C      -8.949805     3.571518     2.047416 C          1 UNL1 0.000
     2 C      -7.619586     3.974916     2.053270 C          1 UNL1 0.000
     3 C      -6.586644     3.037239     1.978050 C          1 UNL1 0.000
     4 C      -6.925195     1.672420     1.896000 C          1 UNL1 0.000
     5 C      -8.254924     1.247972     1.870893 C          1 UNL1 0.000
     6 C      -9.279547     2.215204     1.960158 C          1 UNL1 0.000
     7 N      -6.130285     0.541437     1.758060 N          1 UNL1 0.000
     8 C      -6.924638    -0.593530     1.660728 C          1 UNL1 0.000
     9 C      -6.583285    -1.956200     1.560337 C          1 UNL1 0.000
    10 C      -7.614731    -2.898472     1.528637 C          1 UNL1 0.000
    11 C      -8.945523    -2.501441     1.592989 C          1 UNL1 0.000
    12 C      -9.277371    -1.147065     1.698505 C          1 UNL1 0.000
    13 C      -8.254111    -0.175535     1.746135 C          1 UNL1 0.000
    14 C      -4.716889     0.551456     1.700777 C          1 UNL1 0.000
    15 C      -3.985726     1.042745     2.782905 C          1 UNL1 0.000
    16 C      -2.590967     1.063593     2.710775 C          1 UNL1 0.000
    17 C      -1.919832     0.626847     1.556598 C          1 UNL1 0.000
    18 C      -2.679405     0.159751     0.472930 C          1 UNL1 0.000
    19 C      -4.073503     0.097763     0.548229 C          1 UNL1 0.000
    20 C      -0.451146     0.732614     1.521993 C          1 UNL1 0.000
    21 C       0.358570     0.070264     0.679092 C          1 UNL1 0.000
    22 H      -9.741153     4.314947     2.100704 H          1 UNL1 0.000
    23 H      -7.377169     5.033838     2.106857 H          1 UNL1 0.000
    24 H      -5.551440     3.365550     1.959848 H          1 UNL1 0.000
    25 H     -10.322076     1.910894     1.944499 H          1 UNL1 0.000
    26 H      -5.546482    -2.278754     1.530281 H          1 UNL1 0.000
    27 H      -7.370576    -3.956250     1.461207 H          1 UNL1 0.000
    28 H      -9.735253    -3.248215     1.570452 H          1 UNL1 0.000
    29 H     -10.319670    -0.847329     1.758033 H          1 UNL1 0.000
    30 H      -4.482648     1.377454     3.690539 H          1 UNL1 0.000
    31 H      -2.030165     1.423403     3.571183 H          1 UNL1 0.000
    32 H      -2.201647    -0.145588    -0.454165 H          1 UNL1 0.000
    33 H      -4.642051    -0.252315    -0.310412 H          1 UNL1 0.000
    34 H      -0.016416     1.391312     2.271474 H          1 UNL1 0.000
    35 H      -0.026396    -0.635069    -0.050803 H          1 UNL1 0.000
    36 C       1.821823     0.203084     0.709608 C          1 UNL1 0.000
    37 C       2.447371     1.453372     0.782227 C          1 UNL1 0.000
    38 C       3.842309     1.574924     0.796367 C          1 UNL1 0.000
    39 C       4.593760     0.397671     0.725843 C          1 UNL1 0.000
    40 C       4.007774    -0.864105     0.634593 C          1 UNL1 0.000
    41 C       2.602255    -0.960665     0.617838 C          1 UNL1 0.000
    42 N       5.957831     0.210970     0.725554 N          1 UNL1 0.000
    43 C       6.252922    -1.123878     0.638161 C          1 UNL1 0.000
    44 C       5.064189    -1.814466     0.578040 C          1 UNL1 0.000
    45 H       1.848846     2.361507     0.821565 H          1 UNL1 0.000
    46 H       4.314389     2.549865     0.857145 H          1 UNL1 0.000
    47 H       2.133622    -1.938228     0.549718 H          1 UNL1 0.000
    48 H       6.637808     0.956156     0.783897 H          1 UNL1 0.000
    49 H       7.278901    -1.465866     0.626591 H          1 UNL1 0.000
    50 H       4.961133    -2.889029     0.504300 H          1 UNL1 0.000
@<TRIPOS>BOND
     1      1      2   2
     2      2      3   1
     3      3      4   2
     4      4      5   1
     5      5      6   2
     6      6      1   1
     7      4      7   1
     8      7      8   1
     9      8      9   2
    10      9     10   1
    11     10     11   2
    12     11     12   1
    13     12     13   2
    14     13      8   1
    15     13      5   1
    16     14     15   2
    17     15     16   1
    18     16     17   2
    19     17     18   1
    20     18     19   2
    21     19     14   1
    22     17     20   1
    23     20     21   2
    24      7     14   1
    25      1     22   1
    26      2     23   1
    27      3     24   1
    28      6     25   1
    29      9     26   1
    30     10     27   1
    31     11     28   1
    32     12     29   1
    33     15     30   1
    34     16     31   1
    35     18     32   1
    36     19     33   1
    37     20     34   1
    38     21     35   1
    39     36     37   2
    40     37     38   1
    41     38     39   2
    42     39     40   1
    43     40     41   2
    44     41     36   1
    45     39     42   1
    46     42     43   1
    47     43     44   2
    48     44     40   1
    49     37     45   1
    50     38     46   1
    51     41     47   1
    52     42     48   1
    53     43     49   1
    54     44     50   1
    55     21     36   1
