# Produced with molli package
@<TRIPOS>MOLECULE
G_7_N
43 47 0 0 0
SMALL
USER_CHARGES

@<TRIPOS>ATOM
     1 C      -8.855970     3.555903     2.190972 C          1 UNL1 0.000
     2 C      -7.517587     3.922149     2.140956 C          1 UNL1 0.000
     3 C      -6.515188     2.957885     1.998223 C          1 UNL1 0.000
     4 C      -6.884623     1.598515     1.922068 C          1 UNL1 0.000
     5 C      -8.229443     1.219304     1.935005 C          1 UNL1 0.000
     6 C      -9.222871     2.212412     2.084422 C          1 UNL1 0.000
     7 N      -6.125290     0.439493     1.754161 N          1 UNL1 0.000
     8 C      -6.974925    -0.665867     1.668620 C          1 UNL1 0.000
     9 C      -6.706702    -2.048146     1.573501 C          1 UNL1 0.000
    10 C      -7.779334    -2.943051     1.529641 C          1 UNL1 0.000
    11 C      -9.088637    -2.486640     1.595756 C          1 UNL1 0.000
    12 C      -9.353076    -1.120725     1.723568 C          1 UNL1 0.000
    13 C      -8.285801    -0.196433     1.775087 C          1 UNL1 0.000
    14 C      -4.701934     0.383513     1.690243 C          1 UNL1 0.000
    15 C      -3.926866     1.085770     2.621135 C          1 UNL1 0.000
    16 C      -2.532597     0.983206     2.585120 C          1 UNL1 0.000
    17 C      -1.908881     0.190529     1.616565 C          1 UNL1 0.000
    18 C      -2.685277    -0.486584     0.671054 C          1 UNL1 0.000
    19 C      -4.078234    -0.396405     0.709032 C          1 UNL1 0.000
    20 C      -0.453780     0.049857     1.596383 C          1 UNL1 0.000
    21 C       0.324710     0.825236     0.824807 C          1 UNL1 0.000
    22 H      -9.624370     4.317115     2.299211 H          1 UNL1 0.000
    23 H      -7.244246     4.973048     2.203777 H          1 UNL1 0.000
    24 H      -5.477766     3.270381     1.929284 H          1 UNL1 0.000
    25 H     -10.273052     1.935105     2.106057 H          1 UNL1 0.000
    26 H      -5.690957    -2.431078     1.553837 H          1 UNL1 0.000
    27 H      -7.582947    -4.010067     1.452857 H          1 UNL1 0.000
    28 H      -9.912759    -3.194674     1.564035 H          1 UNL1 0.000
    29 H     -10.379920    -0.773659     1.795985 H          1 UNL1 0.000
    30 H      -4.388581     1.669876     3.413858 H          1 UNL1 0.000
    31 H      -1.939222     1.510474     3.329019 H          1 UNL1 0.000
    32 H      -2.210933    -1.093643    -0.097049 H          1 UNL1 0.000
    33 H      -4.657685    -0.915123    -0.051324 H          1 UNL1 0.000
    34 H      -0.049489    -0.726043     2.238578 H          1 UNL1 0.000
    35 H      -0.155032     1.598280     0.224485 H          1 UNL1 0.000
    36 C       1.750605     0.725852     0.721829 C          1 UNL1 0.000
    37 C       2.515975     1.738909     0.180892 C          1 UNL1 0.000
    38 S       4.186414     1.361148     0.166340 S          1 UNL1 0.000
    39 C       3.900048    -0.169913     0.870213 C          1 UNL1 0.000
    40 C       2.560988    -0.383461     1.117595 C          1 UNL1 0.000
    41 H       2.185976     2.693807    -0.205074 H          1 UNL1 0.000
    42 H       4.724354    -0.841635     1.066590 H          1 UNL1 0.000
    43 H       2.191250    -1.303849     1.552136 H          1 UNL1 0.000
@<TRIPOS>BOND
     1      1      2   2
     2      2      3   1
     3      3      4   2
     4      4      5   1
     5      5      6   2
     6      6      1   1
     7      4      7   1
     8      7      8   1
     9      8      9   2
    10      9     10   1
    11     10     11   2
    12     11     12   1
    13     12     13   2
    14     13      8   1
    15     13      5   1
    16     14     15   2
    17     15     16   1
    18     16     17   2
    19     17     18   1
    20     18     19   2
    21     19     14   1
    22     17     20   1
    23     20     21   2
    24      7     14   1
    25      1     22   1
    26      2     23   1
    27      3     24   1
    28      6     25   1
    29      9     26   1
    30     10     27   1
    31     11     28   1
    32     12     29   1
    33     15     30   1
    34     16     31   1
    35     18     32   1
    36     19     33   1
    37     20     34   1
    38     21     35   1
    39     36     37   2
    40     37     38   1
    41     38     39   1
    42     39     40   2
    43     40     36   1
    44     37     41   1
    45     39     42   1
    46     40     43   1
    47     21     36   1
