# Produced with molli package
@<TRIPOS>MOLECULE
G_7_P
50 54 0 0 0
SMALL
USER_CHARGES

@<TRIPOS>ATOM
     1 C      -8.829469     3.555377     1.941237 C          1 UNL1 0.000
     2 C      -7.490952     3.928459     1.946349 C          1 UNL1 0.000
     3 C      -6.478616     2.965990     1.901496 C          1 UNL1 0.000
     4 C      -6.844006     1.605618     1.855484 C          1 UNL1 0.000
     5 C      -8.184130     1.213267     1.828296 C          1 UNL1 0.000
     6 C      -9.187586     2.205309     1.884310 C          1 UNL1 0.000
     7 N      -6.073480     0.451371     1.753692 N          1 UNL1 0.000
     8 C      -6.899848    -0.665963     1.683267 C          1 UNL1 0.000
     9 C      -6.598701    -2.041978     1.636691 C          1 UNL1 0.000
    10 C      -7.655033    -2.956528     1.617387 C          1 UNL1 0.000
    11 C      -8.974345    -2.521339     1.646907 C          1 UNL1 0.000
    12 C      -9.268227    -1.155822     1.706737 C          1 UNL1 0.000
    13 C      -8.218811    -0.211463     1.739600 C          1 UNL1 0.000
    14 C      -4.655677     0.418263     1.716684 C          1 UNL1 0.000
    15 C      -3.920427     1.020015     2.741397 C          1 UNL1 0.000
    16 C      -2.524591     0.967547     2.707249 C          1 UNL1 0.000
    17 C      -1.858337     0.356408     1.636522 C          1 UNL1 0.000
    18 C      -2.610339    -0.240510     0.615056 C          1 UNL1 0.000
    19 C      -4.006735    -0.221553     0.656873 C          1 UNL1 0.000
    20 C      -0.390472     0.313281     1.643164 C          1 UNL1 0.000
    21 C       0.359151     0.549173     0.559616 C          1 UNL1 0.000
    22 H      -9.604711     4.316889     1.970405 H          1 UNL1 0.000
    23 H      -7.225382     4.982825     1.974883 H          1 UNL1 0.000
    24 H      -5.437557     3.274431     1.879163 H          1 UNL1 0.000
    25 H     -10.236523     1.923538     1.867641 H          1 UNL1 0.000
    26 H      -5.572538    -2.397759     1.638708 H          1 UNL1 0.000
    27 H      -7.439134    -4.022145     1.588502 H          1 UNL1 0.000
    28 H      -9.784496    -3.246082     1.635390 H          1 UNL1 0.000
    29 H     -10.302395    -0.825627     1.743690 H          1 UNL1 0.000
    30 H      -4.416306     1.489526     3.587877 H          1 UNL1 0.000
    31 H      -1.959648     1.413609     3.523309 H          1 UNL1 0.000
    32 H      -2.116538    -0.731409    -0.220217 H          1 UNL1 0.000
    33 H      -4.570433    -0.672412    -0.156781 H          1 UNL1 0.000
    34 H       0.074952     0.104768     2.605602 H          1 UNL1 0.000
    35 H      -0.070730     0.801524    -0.406424 H          1 UNL1 0.000
    36 C       1.820690     0.520054     0.624865 C          1 UNL1 0.000
    37 C       2.508165    -0.699759     0.624549 C          1 UNL1 0.000
    38 C       3.902852    -0.718697     0.692386 C          1 UNL1 0.000
    39 C       4.604522     0.483475     0.750254 C          1 UNL1 0.000
    40 C       3.930299     1.701505     0.780814 C          1 UNL1 0.000
    41 C       2.536337     1.719983     0.707986 C          1 UNL1 0.000
    42 O       5.968676     0.479943     0.852185 O          1 UNL1 0.000
    43 C       6.554170     0.346661    -0.443245 C          1 UNL1 0.000
    44 H       1.962404    -1.638950     0.576179 H          1 UNL1 0.000
    45 H       4.435082    -1.664893     0.707504 H          1 UNL1 0.000
    46 H       4.486062     2.630750     0.861676 H          1 UNL1 0.000
    47 H       2.012874     2.672848     0.728131 H          1 UNL1 0.000
    48 H       7.640196     0.413116    -0.328271 H          1 UNL1 0.000
    49 H       6.233998     1.156286    -1.108877 H          1 UNL1 0.000
    50 H       6.319283    -0.627278    -0.886105 H          1 UNL1 0.000
@<TRIPOS>BOND
     1      1      2   2
     2      2      3   1
     3      3      4   2
     4      4      5   1
     5      5      6   2
     6      6      1   1
     7      4      7   1
     8      7      8   1
     9      8      9   2
    10      9     10   1
    11     10     11   2
    12     11     12   1
    13     12     13   2
    14     13      8   1
    15     13      5   1
    16     14     15   2
    17     15     16   1
    18     16     17   2
    19     17     18   1
    20     18     19   2
    21     19     14   1
    22     17     20   1
    23     20     21   2
    24      7     14   1
    25      1     22   1
    26      2     23   1
    27      3     24   1
    28      6     25   1
    29      9     26   1
    30     10     27   1
    31     11     28   1
    32     12     29   1
    33     15     30   1
    34     16     31   1
    35     18     32   1
    36     19     33   1
    37     20     34   1
    38     21     35   1
    39     36     37   2
    40     37     38   1
    41     38     39   2
    42     39     40   1
    43     40     41   2
    44     41     36   1
    45     42     43   1
    46     39     42   1
    47     37     44   1
    48     38     45   1
    49     40     46   1
    50     41     47   1
    51     43     48   1
    52     43     49   1
    53     43     50   1
    54     21     36   1
