# Produced with molli package
@<TRIPOS>MOLECULE
G_7_M
47 51 0 0 0
SMALL
USER_CHARGES

@<TRIPOS>ATOM
     1 C      -8.983966     3.626524     1.826888 C          1 UNL1 0.000
     2 C      -7.654831     4.036507     1.825386 C          1 UNL1 0.000
     3 C      -6.615589     3.102247     1.812594 C          1 UNL1 0.000
     4 C      -6.950491     1.735640     1.798416 C          1 UNL1 0.000
     5 C      -8.277429     1.301419     1.788988 C          1 UNL1 0.000
     6 C      -9.307737     2.265942     1.811107 C          1 UNL1 0.000
     7 N      -6.151234     0.604203     1.751924 N          1 UNL1 0.000
     8 C      -6.933043    -0.540084     1.718336 C          1 UNL1 0.000
     9 C      -6.575902    -1.900968     1.689859 C          1 UNL1 0.000
    10 C      -7.599474    -2.852355     1.688880 C          1 UNL1 0.000
    11 C      -8.934963    -2.464373     1.711793 C          1 UNL1 0.000
    12 C      -9.280773    -1.109339     1.740836 C          1 UNL1 0.000
    13 C      -8.266304    -0.127900     1.751747 C          1 UNL1 0.000
    14 C      -4.741471     0.616182     1.708781 C          1 UNL1 0.000
    15 C      -4.018356     0.856560     2.875855 C          1 UNL1 0.000
    16 C      -2.620788     0.848043     2.821867 C          1 UNL1 0.000
    17 C      -1.940869     0.627432     1.610470 C          1 UNL1 0.000
    18 C      -2.700902     0.397320     0.451325 C          1 UNL1 0.000
    19 C      -4.097538     0.380994     0.495544 C          1 UNL1 0.000
    20 C      -0.463865     0.626420     1.622455 C          1 UNL1 0.000
    21 C       0.325910     0.539749     0.540256 C          1 UNL1 0.000
    22 H      -9.779302     4.367754     1.834788 H          1 UNL1 0.000
    23 H      -7.419113     5.098330     1.829048 H          1 UNL1 0.000
    24 H      -5.580040     3.429840     1.799897 H          1 UNL1 0.000
    25 H     -10.348708     1.955816     1.805713 H          1 UNL1 0.000
    26 H      -5.534966    -2.211299     1.681572 H          1 UNL1 0.000
    27 H      -7.346286    -3.910060     1.674101 H          1 UNL1 0.000
    28 H      -9.717982    -3.218657     1.711360 H          1 UNL1 0.000
    29 H     -10.326554    -0.816604     1.762125 H          1 UNL1 0.000
    30 H      -4.524127     1.022823     3.823994 H          1 UNL1 0.000
    31 H      -2.065956     1.014177     3.743317 H          1 UNL1 0.000
    32 H      -2.225317     0.222929    -0.509211 H          1 UNL1 0.000
    33 H      -4.665619     0.206550    -0.415274 H          1 UNL1 0.000
    34 H      -0.002615     0.698860     2.606475 H          1 UNL1 0.000
    35 H      -0.060083     0.464359    -0.470392 H          1 UNL1 0.000
    36 C       1.785862     0.528838     0.635683 C          1 UNL1 0.000
    37 C       2.475644    -0.687424     0.594061 C          1 UNL1 0.000
    38 C       3.872980    -0.705595     0.625690 C          1 UNL1 0.000
    39 C       4.588449     0.494087     0.699725 C          1 UNL1 0.000
    40 C       3.899202     1.710306     0.758181 C          1 UNL1 0.000
    41 C       2.501276     1.727028     0.728629 C          1 UNL1 0.000
    42 C       6.021986     0.477202     0.702248 C          1 UNL1 0.000
    43 N       7.182770     0.462607     0.697320 N          1 UNL1 0.000
    44 H       1.929667    -1.626305     0.526164 H          1 UNL1 0.000
    45 H       4.395351    -1.659536     0.582019 H          1 UNL1 0.000
    46 H       4.443104     2.651408     0.815815 H          1 UNL1 0.000
    47 H       1.976041     2.679456     0.761058 H          1 UNL1 0.000
@<TRIPOS>BOND
     1      1      2   2
     2      2      3   1
     3      3      4   2
     4      4      5   1
     5      5      6   2
     6      6      1   1
     7      4      7   1
     8      7      8   1
     9      8      9   2
    10      9     10   1
    11     10     11   2
    12     11     12   1
    13     12     13   2
    14     13      8   1
    15     13      5   1
    16     14     15   2
    17     15     16   1
    18     16     17   2
    19     17     18   1
    20     18     19   2
    21     19     14   1
    22     17     20   1
    23     20     21   2
    24      7     14   1
    25      1     22   1
    26      2     23   1
    27      3     24   1
    28      6     25   1
    29      9     26   1
    30     10     27   1
    31     11     28   1
    32     12     29   1
    33     15     30   1
    34     16     31   1
    35     18     32   1
    36     19     33   1
    37     20     34   1
    38     21     35   1
    39     36     37   2
    40     37     38   1
    41     38     39   2
    42     39     40   1
    43     40     41   2
    44     41     36   1
    45     42     43   3
    46     39     42   1
    47     37     44   1
    48     38     45   1
    49     40     46   1
    50     41     47   1
    51     21     36   1
