# Produced with molli package
@<TRIPOS>MOLECULE
G_7_K
48 52 0 0 0
SMALL
USER_CHARGES

@<TRIPOS>ATOM
     1 C      -8.950123     3.531693     1.956121 C          1 UNL1 0.000
     2 C      -7.623829     3.949914     1.954201 C          1 UNL1 0.000
     3 C      -6.578760     3.022367     1.922867 C          1 UNL1 0.000
     4 C      -6.903589     1.653155     1.889896 C          1 UNL1 0.000
     5 C      -8.228613     1.211863     1.879107 C          1 UNL1 0.000
     6 C      -9.264798     2.169527     1.922953 C          1 UNL1 0.000
     7 N      -6.097860     0.527264     1.803798 N          1 UNL1 0.000
     8 C      -6.876390    -0.620447     1.758119 C          1 UNL1 0.000
     9 C      -6.514163    -1.980155     1.712860 C          1 UNL1 0.000
    10 C      -7.532230    -2.936947     1.715604 C          1 UNL1 0.000
    11 C      -8.868804    -2.555843     1.758922 C          1 UNL1 0.000
    12 C      -9.220473    -1.202825     1.807097 C          1 UNL1 0.000
    13 C      -8.210868    -0.216182     1.817844 C          1 UNL1 0.000
    14 C      -4.686675     0.543139     1.744569 C          1 UNL1 0.000
    15 C      -3.953097     0.918982     2.870409 C          1 UNL1 0.000
    16 C      -2.556839     0.885204     2.813681 C          1 UNL1 0.000
    17 C      -1.893032     0.520893     1.631096 C          1 UNL1 0.000
    18 C      -2.655050     0.153849     0.510799 C          1 UNL1 0.000
    19 C      -4.050304     0.153071     0.565347 C          1 UNL1 0.000
    20 C      -0.422537     0.470308     1.627544 C          1 UNL1 0.000
    21 C       0.335803     0.733503     0.552029 C          1 UNL1 0.000
    22 H      -9.750260     4.267519     1.975805 H          1 UNL1 0.000
    23 H      -7.394917     5.013157     1.968869 H          1 UNL1 0.000
    24 H      -5.546226     3.358811     1.903489 H          1 UNL1 0.000
    25 H     -10.303805     1.852779     1.916338 H          1 UNL1 0.000
    26 H      -5.472299    -2.286924     1.694773 H          1 UNL1 0.000
    27 H      -7.273342    -3.993039     1.689985 H          1 UNL1 0.000
    28 H      -9.647899    -3.314102     1.762561 H          1 UNL1 0.000
    29 H     -10.267250    -0.915864     1.848201 H          1 UNL1 0.000
    30 H      -4.450590     1.194086     3.797520 H          1 UNL1 0.000
    31 H      -1.989566     1.146552     3.704762 H          1 UNL1 0.000
    32 H      -2.172771    -0.149481    -0.415124 H          1 UNL1 0.000
    33 H      -4.625030    -0.128226    -0.314131 H          1 UNL1 0.000
    34 H       0.044834     0.216134     2.577045 H          1 UNL1 0.000
    35 H      -0.088019     1.025986    -0.404163 H          1 UNL1 0.000
    36 C       1.795803     0.666416     0.604118 C          1 UNL1 0.000
    37 C       2.541394     1.845475     0.724584 C          1 UNL1 0.000
    38 C       3.937597     1.797012     0.754854 C          1 UNL1 0.000
    39 C       4.584620     0.558601     0.658560 C          1 UNL1 0.000
    40 C       3.848614    -0.627556     0.543367 C          1 UNL1 0.000
    41 C       2.452404    -0.568379     0.520752 C          1 UNL1 0.000
    42 N       6.049208     0.503934     0.671951 N          1 UNL1 0.000
    43 O       6.657590     1.498020     1.094048 O          1 UNL1 0.000
    44 O       6.589682    -0.531467     0.258572 O          1 UNL1 0.000
    45 H       2.037656     2.807873     0.794109 H          1 UNL1 0.000
    46 H       4.500443     2.723704     0.845478 H          1 UNL1 0.000
    47 H       4.342255    -1.594398     0.469963 H          1 UNL1 0.000
    48 H       1.879652    -1.489413     0.427980 H          1 UNL1 0.000
@<TRIPOS>BOND
     1      1      2   2
     2      2      3   1
     3      3      4   2
     4      4      5   1
     5      5      6   2
     6      6      1   1
     7      4      7   1
     8      7      8   1
     9      8      9   2
    10      9     10   1
    11     10     11   2
    12     11     12   1
    13     12     13   2
    14     13      8   1
    15     13      5   1
    16     14     15   2
    17     15     16   1
    18     16     17   2
    19     17     18   1
    20     18     19   2
    21     19     14   1
    22     17     20   1
    23     20     21   2
    24      7     14   1
    25      1     22   1
    26      2     23   1
    27      3     24   1
    28      6     25   1
    29      9     26   1
    30     10     27   1
    31     11     28   1
    32     12     29   1
    33     15     30   1
    34     16     31   1
    35     18     32   1
    36     19     33   1
    37     20     34   1
    38     21     35   1
    39     36     37   2
    40     37     38   1
    41     38     39   2
    42     39     40   1
    43     40     41   2
    44     41     36   1
    45     42     43   2
    46     42     44   1
    47     39     42   1
    48     37     45   1
    49     38     46   1
    50     40     47   1
    51     41     48   1
    52     21     36   1
