# Produced with molli package
@<TRIPOS>MOLECULE
G_7_S
51 55 0 0 0
SMALL
USER_CHARGES

@<TRIPOS>ATOM
     1 C      -8.862106     3.620395     1.749766 C          1 UNL1 0.000
     2 C      -7.527232     4.011106     1.723590 C          1 UNL1 0.000
     3 C      -6.500717     3.062347     1.728235 C          1 UNL1 0.000
     4 C      -6.855129     1.701261     1.758314 C          1 UNL1 0.000
     5 C      -8.188142     1.285788     1.781822 C          1 UNL1 0.000
     6 C      -9.204926     2.264800     1.779603 C          1 UNL1 0.000
     7 N      -6.072793     0.557923     1.763242 N          1 UNL1 0.000
     8 C      -6.869954    -0.575531     1.780180 C          1 UNL1 0.000
     9 C      -6.530555    -1.940950     1.782295 C          1 UNL1 0.000
    10 C      -7.566836    -2.878070     1.801833 C          1 UNL1 0.000
    11 C      -8.896994    -2.471530     1.819828 C          1 UNL1 0.000
    12 C      -9.224760    -1.111586     1.817852 C          1 UNL1 0.000
    13 C      -8.197191    -0.144110     1.797148 C          1 UNL1 0.000
    14 C      -4.663906     0.542958     1.717103 C          1 UNL1 0.000
    15 C      -3.937106     0.559183     2.906544 C          1 UNL1 0.000
    16 C      -2.540804     0.503918     2.848449 C          1 UNL1 0.000
    17 C      -1.868340     0.438181     1.615458 C          1 UNL1 0.000
    18 C      -2.631530     0.414920     0.435806 C          1 UNL1 0.000
    19 C      -4.027005     0.471077     0.479606 C          1 UNL1 0.000
    20 C      -0.395159     0.347578     1.616431 C          1 UNL1 0.000
    21 C       0.391483     0.630472     0.565860 C          1 UNL1 0.000
    22 H      -9.646998     4.372766     1.745028 H          1 UNL1 0.000
    23 H      -7.277096     5.069366     1.698032 H          1 UNL1 0.000
    24 H      -5.460492     3.374234     1.705886 H          1 UNL1 0.000
    25 H     -10.250072     1.969417     1.796852 H          1 UNL1 0.000
    26 H      -5.493685    -2.264431     1.768787 H          1 UNL1 0.000
    27 H      -7.327928    -3.939148     1.802797 H          1 UNL1 0.000
    28 H      -9.690052    -3.215084     1.834540 H          1 UNL1 0.000
    29 H     -10.266522    -0.804411     1.830058 H          1 UNL1 0.000
    30 H      -4.439781     0.603873     3.869659 H          1 UNL1 0.000
    31 H      -1.980470     0.513082     3.781374 H          1 UNL1 0.000
    32 H      -2.155193     0.339713    -0.537895 H          1 UNL1 0.000
    33 H      -4.599775     0.449810    -0.444458 H          1 UNL1 0.000
    34 H       0.059299     0.051278     2.560247 H          1 UNL1 0.000
    35 H      -0.007135     0.972091    -0.384418 H          1 UNL1 0.000
    36 C       1.852426     0.549545     0.621691 C          1 UNL1 0.000
    37 C       2.602972     1.723124     0.533325 C          1 UNL1 0.000
    38 C       3.999325     1.666352     0.513580 C          1 UNL1 0.000
    39 C       4.670539     0.435716     0.577277 C          1 UNL1 0.000
    40 C       3.915577    -0.738056     0.687691 C          1 UNL1 0.000
    41 C       2.513880    -0.679532     0.707359 C          1 UNL1 0.000
    42 C       6.165890     0.459544     0.508660 C          1 UNL1 0.000
    43 C       6.968353    -0.814367     0.572887 C          1 UNL1 0.000
    44 O       6.746223     1.542787     0.416544 O          1 UNL1 0.000
    45 H       2.109418     2.690761     0.472887 H          1 UNL1 0.000
    46 H       4.561952     2.595827     0.437944 H          1 UNL1 0.000
    47 H       4.376586    -1.717761     0.749075 H          1 UNL1 0.000
    48 H       1.943105    -1.604337     0.768296 H          1 UNL1 0.000
    49 H       7.768056    -0.757083    -0.172891 H          1 UNL1 0.000
    50 H       6.391989    -1.708975     0.344288 H          1 UNL1 0.000
    51 H       7.408478    -0.908367     1.569105 H          1 UNL1 0.000
@<TRIPOS>BOND
     1      1      2   2
     2      2      3   1
     3      3      4   2
     4      4      5   1
     5      5      6   2
     6      6      1   1
     7      4      7   1
     8      7      8   1
     9      8      9   2
    10      9     10   1
    11     10     11   2
    12     11     12   1
    13     12     13   2
    14     13      8   1
    15     13      5   1
    16     14     15   2
    17     15     16   1
    18     16     17   2
    19     17     18   1
    20     18     19   2
    21     19     14   1
    22     17     20   1
    23     20     21   2
    24      7     14   1
    25      1     22   1
    26      2     23   1
    27      3     24   1
    28      6     25   1
    29      9     26   1
    30     10     27   1
    31     11     28   1
    32     12     29   1
    33     15     30   1
    34     16     31   1
    35     18     32   1
    36     19     33   1
    37     20     34   1
    38     21     35   1
    39     36     37   2
    40     37     38   1
    41     38     39   2
    42     39     40   1
    43     40     41   2
    44     41     36   1
    45     39     42   1
    46     42     43   1
    47     42     44   2
    48     37     45   1
    49     38     46   1
    50     40     47   1
    51     41     48   1
    52     43     49   1
    53     43     50   1
    54     43     51   1
    55     21     36   1
