# Produced with molli package
@<TRIPOS>MOLECULE
G_8_O
42 47 0 0 0
SMALL
USER_CHARGES

@<TRIPOS>ATOM
     1 C      -6.739933     3.530301     0.740611 C          1 UNL1 0.000
     2 C      -5.414118     3.947529     0.707753 C          1 UNL1 0.000
     3 C      -4.372722     3.020911     0.610067 C          1 UNL1 0.000
     4 C      -4.700306     1.652868     0.543706 C          1 UNL1 0.000
     5 C      -6.025337     1.213674     0.562855 C          1 UNL1 0.000
     6 C      -7.057675     2.170164     0.672841 C          1 UNL1 0.000
     7 N      -3.899013     0.530182     0.392213 N          1 UNL1 0.000
     8 C      -4.681062    -0.616210     0.343383 C          1 UNL1 0.000
     9 C      -4.327816    -1.976321     0.251602 C          1 UNL1 0.000
    10 C      -5.348446    -2.930574     0.266525 C          1 UNL1 0.000
    11 C      -6.680915    -2.547607     0.367842 C          1 UNL1 0.000
    12 C      -7.024942    -1.195438     0.461548 C          1 UNL1 0.000
    13 C      -6.012317    -0.211627     0.460553 C          1 UNL1 0.000
    14 C      -2.491546     0.543889     0.359866 C          1 UNL1 0.000
    15 C      -1.758391     0.969827     1.482559 C          1 UNL1 0.000
    16 C      -0.345471     0.953211     1.500912 C          1 UNL1 0.000
    17 C       0.458358     0.526533     0.412239 C          1 UNL1 0.000
    18 C      -0.249909     0.128054    -0.761981 C          1 UNL1 0.000
    19 C      -1.765390     0.132657    -0.785177 C          1 UNL1 0.000
    20 N       0.279590    -0.274042    -1.931191 N          1 UNL1 0.000
    21 S      -0.982465    -0.557324    -2.965731 S          1 UNL1 0.000
    22 N      -2.268718    -0.251083    -1.971684 N          1 UNL1 0.000
    23 H      -7.537667     4.265571     0.810214 H          1 UNL1 0.000
    24 H      -5.182683     5.009629     0.747587 H          1 UNL1 0.000
    25 H      -3.342354     3.360718     0.562067 H          1 UNL1 0.000
    26 H      -8.096716     1.854270     0.690175 H          1 UNL1 0.000
    27 H      -3.290890    -2.288977     0.175593 H          1 UNL1 0.000
    28 H      -5.094567    -3.985924     0.198907 H          1 UNL1 0.000
    29 H      -7.462233    -3.303342     0.377851 H          1 UNL1 0.000
    30 H      -8.068537    -0.906447     0.546085 H          1 UNL1 0.000
    31 H      -2.283669     1.288447     2.383735 H          1 UNL1 0.000
    32 H       0.159216     1.277336     2.414607 H          1 UNL1 0.000
    33 C       1.915981     0.509405     0.470371 C          1 UNL1 0.000
    34 N       2.495063     1.673205     0.860664 N          1 UNL1 0.000
    35 C       3.845052     1.707479     0.918354 C          1 UNL1 0.000
    36 C       4.658202     0.622430     0.640388 C          1 UNL1 0.000
    37 C       4.052720    -0.572368     0.275231 C          1 UNL1 0.000
    38 C       2.664680    -0.631560     0.184240 C          1 UNL1 0.000
    39 H       4.270551     2.665771     1.202405 H          1 UNL1 0.000
    40 H       5.736931     0.706526     0.706087 H          1 UNL1 0.000
    41 H       4.653030    -1.450665     0.056452 H          1 UNL1 0.000
    42 H       2.179205    -1.558873    -0.104244 H          1 UNL1 0.000
@<TRIPOS>BOND
     1      1      2   2
     2      2      3   1
     3      3      4   2
     4      4      5   1
     5      5      6   2
     6      6      1   1
     7      4      7   1
     8      7      8   1
     9      8      9   2
    10      9     10   1
    11     10     11   2
    12     11     12   1
    13     12     13   2
    14     13      8   1
    15     13      5   1
    16     14     15   2
    17     15     16   1
    18     16     17   2
    19     17     18   1
    20     18     19   1
    21     19     14   1
    22     18     20   2
    23     20     21   1
    24     21     22   1
    25     22     19   2
    26      7     14   1
    27      1     23   1
    28      2     24   1
    29      3     25   1
    30      6     26   1
    31      9     27   1
    32     10     28   1
    33     11     29   1
    34     12     30   1
    35     15     31   1
    36     16     32   1
    37     33     34   2
    38     34     35   1
    39     35     36   2
    40     36     37   1
    41     37     38   2
    42     38     33   1
    43     35     39   1
    44     36     40   1
    45     37     41   1
    46     38     42   1
    47     17     33   1
