# Produced with molli package
@<TRIPOS>MOLECULE
G_8_P
47 52 0 0 0
SMALL
USER_CHARGES

@<TRIPOS>ATOM
     1 C      -6.786826     3.531058     0.696808 C          1 UNL1 0.000
     2 C      -5.456672     3.934644     0.649157 C          1 UNL1 0.000
     3 C      -4.422805     2.995360     0.611447 C          1 UNL1 0.000
     4 C      -4.764733     1.630350     0.620535 C          1 UNL1 0.000
     5 C      -6.092757     1.202171     0.663704 C          1 UNL1 0.000
     6 C      -7.117198     2.171983     0.707466 C          1 UNL1 0.000
     7 N      -3.974102     0.494687     0.552097 N          1 UNL1 0.000
     8 C      -4.758918    -0.646954     0.580991 C          1 UNL1 0.000
     9 C      -4.408615    -2.009943     0.568227 C          1 UNL1 0.000
    10 C      -5.435430    -2.956151     0.625169 C          1 UNL1 0.000
    11 C      -6.767492    -2.561437     0.688835 C          1 UNL1 0.000
    12 C      -7.106520    -1.204488     0.701056 C          1 UNL1 0.000
    13 C      -6.088549    -0.227826     0.653423 C          1 UNL1 0.000
    14 C      -2.570795     0.499600     0.509204 C          1 UNL1 0.000
    15 C      -1.824995     0.737040     1.676121 C          1 UNL1 0.000
    16 C      -0.411698     0.727645     1.670334 C          1 UNL1 0.000
    17 C       0.374181     0.497261     0.510680 C          1 UNL1 0.000
    18 C      -0.353614     0.275416    -0.700647 C          1 UNL1 0.000
    19 C      -1.867992     0.271107    -0.699272 C          1 UNL1 0.000
    20 N       0.157635     0.062491    -1.926697 N          1 UNL1 0.000
    21 S      -1.121735    -0.107644    -2.964513 S          1 UNL1 0.000
    22 N      -2.393471     0.055858    -1.916171 N          1 UNL1 0.000
    23 H      -7.578233     4.276143     0.719198 H          1 UNL1 0.000
    24 H      -5.216637     4.995367     0.631723 H          1 UNL1 0.000
    25 H      -3.388096     3.320022     0.556921 H          1 UNL1 0.000
    26 H      -8.159133     1.866792     0.738684 H          1 UNL1 0.000
    27 H      -3.371823    -2.328072     0.515792 H          1 UNL1 0.000
    28 H      -5.187674    -4.015217     0.617204 H          1 UNL1 0.000
    29 H      -7.553101    -3.311856     0.729334 H          1 UNL1 0.000
    30 H      -8.149685    -0.906388     0.751915 H          1 UNL1 0.000
    31 H      -2.341835     0.908381     2.621394 H          1 UNL1 0.000
    32 H       0.100445     0.890302     2.621137 H          1 UNL1 0.000
    33 C       1.837238     0.481822     0.541418 C          1 UNL1 0.000
    34 C       2.562104     1.615075     0.944261 C          1 UNL1 0.000
    35 C       3.961250     1.599277     0.987912 C          1 UNL1 0.000
    36 C       4.654899     0.441084     0.642755 C          1 UNL1 0.000
    37 C       3.952736    -0.682993     0.216226 C          1 UNL1 0.000
    38 C       2.556201    -0.666797     0.175740 C          1 UNL1 0.000
    39 O       6.018560     0.337133     0.635017 O          1 UNL1 0.000
    40 C       6.646210     0.915015     1.775985 C          1 UNL1 0.000
    41 H       2.040076     2.533275     1.206408 H          1 UNL1 0.000
    42 H       4.486366     2.507155     1.265944 H          1 UNL1 0.000
    43 H       4.492176    -1.579017    -0.078704 H          1 UNL1 0.000
    44 H       2.031610    -1.562558    -0.150934 H          1 UNL1 0.000
    45 H       7.688109     0.580708     1.786924 H          1 UNL1 0.000
    46 H       6.174933     0.574376     2.704870 H          1 UNL1 0.000
    47 H       6.648599     2.007516     1.717316 H          1 UNL1 0.000
@<TRIPOS>BOND
     1      1      2   2
     2      2      3   1
     3      3      4   2
     4      4      5   1
     5      5      6   2
     6      6      1   1
     7      4      7   1
     8      7      8   1
     9      8      9   2
    10      9     10   1
    11     10     11   2
    12     11     12   1
    13     12     13   2
    14     13      8   1
    15     13      5   1
    16     14     15   2
    17     15     16   1
    18     16     17   2
    19     17     18   1
    20     18     19   1
    21     19     14   1
    22     18     20   2
    23     20     21   1
    24     21     22   1
    25     22     19   2
    26      7     14   1
    27      1     23   1
    28      2     24   1
    29      3     25   1
    30      6     26   1
    31      9     27   1
    32     10     28   1
    33     11     29   1
    34     12     30   1
    35     15     31   1
    36     16     32   1
    37     33     34   2
    38     34     35   1
    39     35     36   2
    40     36     37   1
    41     37     38   2
    42     38     33   1
    43     39     40   1
    44     36     39   1
    45     34     41   1
    46     35     42   1
    47     37     43   1
    48     38     44   1
    49     40     45   1
    50     40     46   1
    51     40     47   1
    52     17     33   1
