# Produced with molli package
@<TRIPOS>MOLECULE
G_8_R
44 49 0 0 0
SMALL
USER_CHARGES

@<TRIPOS>ATOM
     1 C      -6.767499     3.504694     0.772083 C          1 UNL1 0.000
     2 C      -5.441549     3.923861     0.741555 C          1 UNL1 0.000
     3 C      -4.397766     2.998677     0.653752 C          1 UNL1 0.000
     4 C      -4.725891     1.631827     0.593226 C          1 UNL1 0.000
     5 C      -6.049652     1.188332     0.615980 C          1 UNL1 0.000
     6 C      -7.083973     2.143676     0.712583 C          1 UNL1 0.000
     7 N      -3.924124     0.508922     0.474994 N          1 UNL1 0.000
     8 C      -4.697687    -0.640317     0.437603 C          1 UNL1 0.000
     9 C      -4.333403    -1.996763     0.347305 C          1 UNL1 0.000
    10 C      -5.350307    -2.955043     0.349041 C          1 UNL1 0.000
    11 C      -6.686144    -2.578037     0.435943 C          1 UNL1 0.000
    12 C      -7.039059    -1.227389     0.524663 C          1 UNL1 0.000
    13 C      -6.031330    -0.239072     0.530251 C          1 UNL1 0.000
    14 C      -2.520496     0.522000     0.462853 C          1 UNL1 0.000
    15 C      -1.801119     0.635536     1.665600 C          1 UNL1 0.000
    16 C      -0.388324     0.599913     1.693282 C          1 UNL1 0.000
    17 C       0.416857     0.444279     0.536606 C          1 UNL1 0.000
    18 C      -0.279092     0.349099    -0.705622 C          1 UNL1 0.000
    19 C      -1.790897     0.388842    -0.743727 C          1 UNL1 0.000
    20 N       0.264312     0.215075    -1.929350 N          1 UNL1 0.000
    21 S      -0.989434     0.196628    -3.014269 S          1 UNL1 0.000
    22 N      -2.285835     0.294846    -1.988378 N          1 UNL1 0.000
    23 H      -7.566328     4.239377     0.836641 H          1 UNL1 0.000
    24 H      -5.212492     4.986559     0.779234 H          1 UNL1 0.000
    25 H      -3.366312     3.336367     0.616325 H          1 UNL1 0.000
    26 H      -8.122634     1.826499     0.731711 H          1 UNL1 0.000
    27 H      -3.293702    -2.300786     0.276198 H          1 UNL1 0.000
    28 H      -5.092182    -4.009341     0.279507 H          1 UNL1 0.000
    29 H      -7.464133    -3.337469     0.434181 H          1 UNL1 0.000
    30 H      -8.085234    -0.943367     0.592289 H          1 UNL1 0.000
    31 H      -2.339478     0.734622     2.609270 H          1 UNL1 0.000
    32 H       0.108799     0.687702     2.661800 H          1 UNL1 0.000
    33 C       1.870051     0.391411     0.581392 C          1 UNL1 0.000
    34 N       2.487568     1.543416     0.949117 N          1 UNL1 0.000
    35 C       3.845197     1.554879     0.951894 C          1 UNL1 0.000
    36 C       4.612360     0.445086     0.635640 C          1 UNL1 0.000
    37 C       3.972041    -0.747669     0.300964 C          1 UNL1 0.000
    38 C       2.578069    -0.770939     0.269812 C          1 UNL1 0.000
    39 N       6.063720     0.538070     0.650432 N          1 UNL1 0.000
    40 O       6.704272    -0.415829     0.186305 O          1 UNL1 0.000
    41 O       6.570836     1.561793     1.127977 O          1 UNL1 0.000
    42 H       4.285743     2.513508     1.215070 H          1 UNL1 0.000
    43 H       4.531464    -1.647278     0.056003 H          1 UNL1 0.000
    44 H       2.054006    -1.682708    -0.003434 H          1 UNL1 0.000
@<TRIPOS>BOND
     1      1      2   2
     2      2      3   1
     3      3      4   2
     4      4      5   1
     5      5      6   2
     6      6      1   1
     7      4      7   1
     8      7      8   1
     9      8      9   2
    10      9     10   1
    11     10     11   2
    12     11     12   1
    13     12     13   2
    14     13      8   1
    15     13      5   1
    16     14     15   2
    17     15     16   1
    18     16     17   2
    19     17     18   1
    20     18     19   1
    21     19     14   1
    22     18     20   2
    23     20     21   1
    24     21     22   1
    25     22     19   2
    26      7     14   1
    27      1     23   1
    28      2     24   1
    29      3     25   1
    30      6     26   1
    31      9     27   1
    32     10     28   1
    33     11     29   1
    34     12     30   1
    35     15     31   1
    36     16     32   1
    37     33     34   2
    38     34     35   1
    39     35     36   2
    40     36     37   1
    41     37     38   2
    42     38     33   1
    43     39     40   2
    44     39     41   1
    45     36     39   1
    46     35     42   1
    47     37     43   1
    48     38     44   1
    49     17     33   1
