# Produced with molli package
@<TRIPOS>MOLECULE
G_8_K
45 50 0 0 0
SMALL
USER_CHARGES

@<TRIPOS>ATOM
     1 C      -6.666164     3.598281     0.507686 C          1 UNL1 0.000
     2 C      -5.330741     3.986855     0.491211 C          1 UNL1 0.000
     3 C      -4.306998     3.036199     0.458572 C          1 UNL1 0.000
     4 C      -4.664839     1.675442     0.441986 C          1 UNL1 0.000
     5 C      -5.998186     1.262141     0.457456 C          1 UNL1 0.000
     6 C      -7.012238     2.243159     0.492852 C          1 UNL1 0.000
     7 N      -3.886379     0.531202     0.384392 N          1 UNL1 0.000
     8 C      -4.683438    -0.601565     0.392169 C          1 UNL1 0.000
     9 C      -4.347591    -1.967847     0.372376 C          1 UNL1 0.000
    10 C      -5.386142    -2.902688     0.393383 C          1 UNL1 0.000
    11 C      -6.714987    -2.493509     0.429681 C          1 UNL1 0.000
    12 C      -7.039300    -1.133078     0.448978 C          1 UNL1 0.000
    13 C      -6.009711    -0.167776     0.434595 C          1 UNL1 0.000
    14 C      -2.482972     0.520356     0.375261 C          1 UNL1 0.000
    15 C      -1.764438     0.626362     1.579281 C          1 UNL1 0.000
    16 C      -0.351463     0.611902     1.606968 C          1 UNL1 0.000
    17 C       0.454485     0.505448     0.446260 C          1 UNL1 0.000
    18 C      -0.240620     0.406363    -0.798192 C          1 UNL1 0.000
    19 C      -1.753519     0.409302    -0.833967 C          1 UNL1 0.000
    20 N       0.305527     0.304089    -2.022880 N          1 UNL1 0.000
    21 S      -0.949153     0.225195    -3.104059 S          1 UNL1 0.000
    22 N      -2.247807     0.310205    -2.078426 N          1 UNL1 0.000
    23 H      -7.449301     4.352207     0.527595 H          1 UNL1 0.000
    24 H      -5.078611     5.044939     0.496594 H          1 UNL1 0.000
    25 H      -3.267756     3.349386     0.432666 H          1 UNL1 0.000
    26 H      -8.058063     1.949925     0.502230 H          1 UNL1 0.000
    27 H      -3.313523    -2.296837     0.338233 H          1 UNL1 0.000
    28 H      -5.150674    -3.964481     0.377543 H          1 UNL1 0.000
    29 H      -7.509792    -3.235263     0.441903 H          1 UNL1 0.000
    30 H      -8.080096    -0.823684     0.477127 H          1 UNL1 0.000
    31 H      -2.304616     0.711166     2.523335 H          1 UNL1 0.000
    32 H       0.141082     0.688911     2.578470 H          1 UNL1 0.000
    33 C       1.912584     0.494761     0.497787 C          1 UNL1 0.000
    34 C       2.610144    -0.700911     0.737290 C          1 UNL1 0.000
    35 C       4.007452    -0.719358     0.780507 C          1 UNL1 0.000
    36 C       4.717058     0.470637     0.583169 C          1 UNL1 0.000
    37 C       4.041413     1.673265     0.347162 C          1 UNL1 0.000
    38 C       2.643940     1.678904     0.306859 C          1 UNL1 0.000
    39 N       6.182729     0.457371     0.623482 N          1 UNL1 0.000
    40 O       6.780123     1.450907     0.186717 O          1 UNL1 0.000
    41 O       6.735606    -0.546004     1.097476 O          1 UNL1 0.000
    42 H       2.064272    -1.632613     0.878910 H          1 UNL1 0.000
    43 H       4.521509    -1.661813     0.957983 H          1 UNL1 0.000
    44 H       4.581390     2.604800     0.190877 H          1 UNL1 0.000
    45 H       2.124032     2.616349     0.114297 H          1 UNL1 0.000
@<TRIPOS>BOND
     1      1      2   2
     2      2      3   1
     3      3      4   2
     4      4      5   1
     5      5      6   2
     6      6      1   1
     7      4      7   1
     8      7      8   1
     9      8      9   2
    10      9     10   1
    11     10     11   2
    12     11     12   1
    13     12     13   2
    14     13      8   1
    15     13      5   1
    16     14     15   2
    17     15     16   1
    18     16     17   2
    19     17     18   1
    20     18     19   1
    21     19     14   1
    22     18     20   2
    23     20     21   1
    24     21     22   1
    25     22     19   2
    26      7     14   1
    27      1     23   1
    28      2     24   1
    29      3     25   1
    30      6     26   1
    31      9     27   1
    32     10     28   1
    33     11     29   1
    34     12     30   1
    35     15     31   1
    36     16     32   1
    37     33     34   2
    38     34     35   1
    39     35     36   2
    40     36     37   1
    41     37     38   2
    42     38     33   1
    43     39     40   2
    44     39     41   1
    45     36     39   1
    46     34     42   1
    47     35     43   1
    48     37     44   1
    49     38     45   1
    50     17     33   1
