# Produced with molli package
@<TRIPOS>MOLECULE
G_8_N
40 45 0 0 0
SMALL
USER_CHARGES

@<TRIPOS>ATOM
     1 C      -6.768802     3.562559     0.721129 C          1 UNL1 0.000
     2 C      -5.440438     3.970741     0.692219 C          1 UNL1 0.000
     3 C      -4.405101     3.036676     0.601787 C          1 UNL1 0.000
     4 C      -4.740397     1.669528     0.540439 C          1 UNL1 0.000
     5 C      -6.068491     1.240447     0.553758 C          1 UNL1 0.000
     6 C      -7.094934     2.204355     0.655831 C          1 UNL1 0.000
     7 N      -3.945035     0.540195     0.398689 N          1 UNL1 0.000
     8 C      -4.736366    -0.600544     0.347975 C          1 UNL1 0.000
     9 C      -4.395789    -1.964512     0.267168 C          1 UNL1 0.000
    10 C      -5.424909    -2.909878     0.279811 C          1 UNL1 0.000
    11 C      -6.754572    -2.515011     0.369984 C          1 UNL1 0.000
    12 C      -7.086751    -1.159677     0.454961 C          1 UNL1 0.000
    13 C      -6.065558    -0.184760     0.455732 C          1 UNL1 0.000
    14 C      -2.535357     0.546412     0.384361 C          1 UNL1 0.000
    15 C      -1.818571     1.029114     1.499906 C          1 UNL1 0.000
    16 C      -0.406716     1.024501     1.545707 C          1 UNL1 0.000
    17 C       0.398481     0.565208     0.481087 C          1 UNL1 0.000
    18 C      -0.275022     0.091260    -0.685843 C          1 UNL1 0.000
    19 C      -1.791015     0.079095    -0.727649 C          1 UNL1 0.000
    20 N       0.277873    -0.362562    -1.822112 N          1 UNL1 0.000
    21 S      -0.966351    -0.730961    -2.852746 S          1 UNL1 0.000
    22 N      -2.272061    -0.370855    -1.901754 N          1 UNL1 0.000
    23 H      -7.562180     4.303112     0.784944 H          1 UNL1 0.000
    24 H      -5.202509     5.031564     0.729087 H          1 UNL1 0.000
    25 H      -3.373243     3.370940     0.555299 H          1 UNL1 0.000
    26 H      -8.136168     1.895504     0.669161 H          1 UNL1 0.000
    27 H      -3.361535    -2.288500     0.200885 H          1 UNL1 0.000
    28 H      -5.179842    -3.967757     0.219530 H          1 UNL1 0.000
    29 H      -7.542594    -3.263777     0.378713 H          1 UNL1 0.000
    30 H      -8.128351    -0.861133     0.532137 H          1 UNL1 0.000
    31 H      -2.362021     1.378865     2.378592 H          1 UNL1 0.000
    32 H       0.075784     1.374833     2.460464 H          1 UNL1 0.000
    33 C       1.846154     0.553092     0.559268 C          1 UNL1 0.000
    34 C       2.566339     1.707775     0.798589 C          1 UNL1 0.000
    35 S       4.254307     1.424938     0.855256 S          1 UNL1 0.000
    36 C       4.039754    -0.244913     0.558601 C          1 UNL1 0.000
    37 C       2.710788    -0.577562     0.415828 C          1 UNL1 0.000
    38 H       2.193072     2.713672     0.934220 H          1 UNL1 0.000
    39 H       4.896418    -0.902085     0.498965 H          1 UNL1 0.000
    40 H       2.373479    -1.588407     0.217876 H          1 UNL1 0.000
@<TRIPOS>BOND
     1      1      2   2
     2      2      3   1
     3      3      4   2
     4      4      5   1
     5      5      6   2
     6      6      1   1
     7      4      7   1
     8      7      8   1
     9      8      9   2
    10      9     10   1
    11     10     11   2
    12     11     12   1
    13     12     13   2
    14     13      8   1
    15     13      5   1
    16     14     15   2
    17     15     16   1
    18     16     17   2
    19     17     18   1
    20     18     19   1
    21     19     14   1
    22     18     20   2
    23     20     21   1
    24     21     22   1
    25     22     19   2
    26      7     14   1
    27      1     23   1
    28      2     24   1
    29      3     25   1
    30      6     26   1
    31      9     27   1
    32     10     28   1
    33     11     29   1
    34     12     30   1
    35     15     31   1
    36     16     32   1
    37     33     34   2
    38     34     35   1
    39     35     36   1
    40     36     37   2
    41     37     33   1
    42     34     38   1
    43     36     39   1
    44     37     40   1
    45     17     33   1
