# Produced with molli package
@<TRIPOS>MOLECULE
G_8_L
47 53 0 0 0
SMALL
USER_CHARGES

@<TRIPOS>ATOM
     1 C      -6.692359     3.626378     0.462648 C          1 UNL1 0.000
     2 C      -5.354744     4.004529     0.413014 C          1 UNL1 0.000
     3 C      -4.338198     3.045939     0.396527 C          1 UNL1 0.000
     4 C      -4.705484     1.688193     0.432657 C          1 UNL1 0.000
     5 C      -6.040789     1.285186     0.485961 C          1 UNL1 0.000
     6 C      -7.047768     2.274024     0.499325 C          1 UNL1 0.000
     7 N      -3.934295     0.537640     0.419626 N          1 UNL1 0.000
     8 C      -4.738047    -0.588381     0.488370 C          1 UNL1 0.000
     9 C      -4.411602    -1.956766     0.514952 C          1 UNL1 0.000
    10 C      -5.456794    -2.883053     0.571564 C          1 UNL1 0.000
    11 C      -6.782745    -2.463722     0.600479 C          1 UNL1 0.000
    12 C      -7.097527    -1.101248     0.575457 C          1 UNL1 0.000
    13 C      -6.061469    -0.144397     0.519095 C          1 UNL1 0.000
    14 C      -2.531226     0.520263     0.397399 C          1 UNL1 0.000
    15 C      -1.803214     0.525923     1.599671 C          1 UNL1 0.000
    16 C      -0.390406     0.525683     1.612550 C          1 UNL1 0.000
    17 C       0.407200     0.518233     0.440336 C          1 UNL1 0.000
    18 C      -0.297631     0.513147    -0.802189 C          1 UNL1 0.000
    19 C      -1.812264     0.515403    -0.823413 C          1 UNL1 0.000
    20 N       0.234171     0.508098    -2.037281 N          1 UNL1 0.000
    21 S      -1.030378     0.504447    -3.108015 S          1 UNL1 0.000
    22 N      -2.319653     0.512174    -2.066874 N          1 UNL1 0.000
    23 H      -7.469788     4.386290     0.470367 H          1 UNL1 0.000
    24 H      -5.094754     5.060172     0.381493 H          1 UNL1 0.000
    25 H      -3.296892     3.349849     0.349087 H          1 UNL1 0.000
    26 H      -8.095107     1.988781     0.536480 H          1 UNL1 0.000
    27 H      -3.379918    -2.293773     0.482772 H          1 UNL1 0.000
    28 H      -5.228834    -3.946496     0.587457 H          1 UNL1 0.000
    29 H      -7.582670    -3.198996     0.639606 H          1 UNL1 0.000
    30 H      -8.135968    -0.783531     0.596332 H          1 UNL1 0.000
    31 H      -2.334059     0.533481     2.552419 H          1 UNL1 0.000
    32 H       0.113218     0.529238     2.581581 H          1 UNL1 0.000
    33 C       1.865939     0.509849     0.489343 C          1 UNL1 0.000
    34 C       2.583021     1.709348     0.602112 C          1 UNL1 0.000
    35 C       3.981568     1.729643     0.674348 C          1 UNL1 0.000
    36 C       4.647872     0.501125     0.634497 C          1 UNL1 0.000
    37 C       3.976011    -0.715081     0.522236 C          1 UNL1 0.000
    38 C       2.568990    -0.708451     0.447336 C          1 UNL1 0.000
    39 N       5.993939     0.216175     0.686296 N          1 UNL1 0.000
    40 C       6.194669    -1.137049     0.616299 C          1 UNL1 0.000
    41 C       4.961998    -1.739920     0.511140 C          1 UNL1 0.000
    42 H       2.048553     2.657701     0.628748 H          1 UNL1 0.000
    43 H       4.520519     2.667754     0.755863 H          1 UNL1 0.000
    44 H       2.033825    -1.649673     0.355242 H          1 UNL1 0.000
    45 H       6.723905     0.910736     0.764342 H          1 UNL1 0.000
    46 H       7.192916    -1.552386     0.643927 H          1 UNL1 0.000
    47 H       4.784612    -2.804441     0.433711 H          1 UNL1 0.000
@<TRIPOS>BOND
     1      1      2   2
     2      2      3   1
     3      3      4   2
     4      4      5   1
     5      5      6   2
     6      6      1   1
     7      4      7   1
     8      7      8   1
     9      8      9   2
    10      9     10   1
    11     10     11   2
    12     11     12   1
    13     12     13   2
    14     13      8   1
    15     13      5   1
    16     14     15   2
    17     15     16   1
    18     16     17   2
    19     17     18   1
    20     18     19   1
    21     19     14   1
    22     18     20   2
    23     20     21   1
    24     21     22   1
    25     22     19   2
    26      7     14   1
    27      1     23   1
    28      2     24   1
    29      3     25   1
    30      6     26   1
    31      9     27   1
    32     10     28   1
    33     11     29   1
    34     12     30   1
    35     15     31   1
    36     16     32   1
    37     33     34   2
    38     34     35   1
    39     35     36   2
    40     36     37   1
    41     37     38   2
    42     38     33   1
    43     36     39   1
    44     39     40   1
    45     40     41   2
    46     41     37   1
    47     34     42   1
    48     35     43   1
    49     38     44   1
    50     39     45   1
    51     40     46   1
    52     41     47   1
    53     17     33   1
