# Produced with molli package
@<TRIPOS>MOLECULE
G_8_T
46 51 0 0 0
SMALL
USER_CHARGES

@<TRIPOS>ATOM
     1 C      -6.835520     3.494931     0.391831 C          1 UNL1 0.000
     2 C      -5.511735     3.912783     0.317495 C          1 UNL1 0.000
     3 C      -4.465623     2.986326     0.330473 C          1 UNL1 0.000
     4 C      -4.784924     1.617941     0.423563 C          1 UNL1 0.000
     5 C      -6.106963     1.178685     0.515687 C          1 UNL1 0.000
     6 C      -7.145490     2.134689     0.487493 C          1 UNL1 0.000
     7 N      -3.974139     0.493403     0.490659 N          1 UNL1 0.000
     8 C      -4.747857    -0.649638     0.638125 C          1 UNL1 0.000
     9 C      -4.385798    -2.007968     0.721304 C          1 UNL1 0.000
    10 C      -5.403886    -2.961582     0.803779 C          1 UNL1 0.000
    11 C      -6.740706    -2.579710     0.804752 C          1 UNL1 0.000
    12 C      -7.092837    -1.229020     0.721054 C          1 UNL1 0.000
    13 C      -6.084309    -0.245807     0.627271 C          1 UNL1 0.000
    14 C      -2.566882     0.510637     0.459040 C          1 UNL1 0.000
    15 C      -1.823101     0.109059     1.584084 C          1 UNL1 0.000
    16 C      -0.409900     0.132678     1.595835 C          1 UNL1 0.000
    17 C       0.381062     0.531803     0.489057 C          1 UNL1 0.000
    18 C      -0.336980     0.916923    -0.685231 C          1 UNL1 0.000
    19 C      -1.851846     0.913387    -0.697800 C          1 UNL1 0.000
    20 N       0.185498     1.298876    -1.864735 N          1 UNL1 0.000
    21 S      -1.083995     1.590615    -2.886668 S          1 UNL1 0.000
    22 N      -2.364336     1.282387    -1.883346 N          1 UNL1 0.000
    23 H      -7.636802     4.229452     0.378558 H          1 UNL1 0.000
    24 H      -5.284727     4.974192     0.248126 H          1 UNL1 0.000
    25 H      -3.435846     3.325630     0.273700 H          1 UNL1 0.000
    26 H      -8.182615     1.818318     0.550094 H          1 UNL1 0.000
    27 H      -3.346300    -2.320768     0.696786 H          1 UNL1 0.000
    28 H      -5.145656    -4.016886     0.855885 H          1 UNL1 0.000
    29 H      -7.520079    -3.335546     0.861299 H          1 UNL1 0.000
    30 H      -8.140125    -0.940933     0.712927 H          1 UNL1 0.000
    31 H      -2.343077    -0.195407     2.493804 H          1 UNL1 0.000
    32 H       0.097277    -0.159318     2.517888 H          1 UNL1 0.000
    33 C       1.841959     0.545404     0.528627 C          1 UNL1 0.000
    34 C       2.554899     1.750899     0.449691 C          1 UNL1 0.000
    35 C       3.952436     1.764362     0.485046 C          1 UNL1 0.000
    36 C       4.668859     0.569770     0.600115 C          1 UNL1 0.000
    37 C       3.966173    -0.637056     0.681389 C          1 UNL1 0.000
    38 C       2.568370    -0.647907     0.650962 C          1 UNL1 0.000
    39 C       6.168438     0.567199     0.613140 C          1 UNL1 0.000
    40 H       2.022777     2.695189     0.351765 H          1 UNL1 0.000
    41 H       4.473439     2.716362     0.414118 H          1 UNL1 0.000
    42 H       4.503909    -1.579260     0.760168 H          1 UNL1 0.000
    43 H       2.048849    -1.602349     0.703661 H          1 UNL1 0.000
    44 H       6.550813     0.047839    -0.271428 H          1 UNL1 0.000
    45 H       6.538229     0.066278     1.513517 H          1 UNL1 0.000
    46 H       6.571887     1.585137     0.608063 H          1 UNL1 0.000
@<TRIPOS>BOND
     1      1      2   2
     2      2      3   1
     3      3      4   2
     4      4      5   1
     5      5      6   2
     6      6      1   1
     7      4      7   1
     8      7      8   1
     9      8      9   2
    10      9     10   1
    11     10     11   2
    12     11     12   1
    13     12     13   2
    14     13      8   1
    15     13      5   1
    16     14     15   2
    17     15     16   1
    18     16     17   2
    19     17     18   1
    20     18     19   1
    21     19     14   1
    22     18     20   2
    23     20     21   1
    24     21     22   1
    25     22     19   2
    26      7     14   1
    27      1     23   1
    28      2     24   1
    29      3     25   1
    30      6     26   1
    31      9     27   1
    32     10     28   1
    33     11     29   1
    34     12     30   1
    35     15     31   1
    36     16     32   1
    37     33     34   2
    38     34     35   1
    39     35     36   2
    40     36     37   1
    41     37     38   2
    42     38     33   1
    43     36     39   1
    44     34     40   1
    45     35     41   1
    46     37     42   1
    47     38     43   1
    48     39     44   1
    49     39     45   1
    50     39     46   1
    51     17     33   1
