# Produced with molli package
@<TRIPOS>MOLECULE
G_8_M
44 49 0 0 0
SMALL
USER_CHARGES

@<TRIPOS>ATOM
     1 C      -6.764787     3.524436     0.543600 C          1 UNL1 0.000
     2 C      -5.441117     3.951606     0.540314 C          1 UNL1 0.000
     3 C      -4.389966     3.031786     0.493140 C          1 UNL1 0.000
     4 C      -4.707875     1.661792     0.446862 C          1 UNL1 0.000
     5 C      -6.029071     1.210313     0.445915 C          1 UNL1 0.000
     6 C      -7.071256     2.160566     0.499274 C          1 UNL1 0.000
     7 N      -3.896791     0.542027     0.361371 N          1 UNL1 0.000
     8 C      -4.661962    -0.612675     0.334953 C          1 UNL1 0.000
     9 C      -4.287545    -1.968152     0.282158 C          1 UNL1 0.000
    10 C      -5.298865    -2.932485     0.277718 C          1 UNL1 0.000
    11 C      -6.638800    -2.562287     0.320931 C          1 UNL1 0.000
    12 C      -7.001674    -1.212499     0.373689 C          1 UNL1 0.000
    13 C      -5.999967    -0.218206     0.386883 C          1 UNL1 0.000
    14 C      -2.493268     0.569554     0.345280 C          1 UNL1 0.000
    15 C      -1.770368     0.721162     1.542082 C          1 UNL1 0.000
    16 C      -0.356729     0.726844     1.563121 C          1 UNL1 0.000
    17 C       0.444910     0.597921     0.401831 C          1 UNL1 0.000
    18 C      -0.254879     0.458878    -0.836159 C          1 UNL1 0.000
    19 C      -1.767299     0.438516    -0.864209 C          1 UNL1 0.000
    20 N       0.286536     0.336653    -2.061174 N          1 UNL1 0.000
    21 S      -0.971506     0.219329    -3.134238 S          1 UNL1 0.000
    22 N      -2.266009     0.303517    -2.103637 N          1 UNL1 0.000
    23 H      -7.569621     4.254766     0.574730 H          1 UNL1 0.000
    24 H      -5.219949     5.016288     0.566497 H          1 UNL1 0.000
    25 H      -3.360295     3.375673     0.475516 H          1 UNL1 0.000
    26 H      -8.108151     1.836994     0.496750 H          1 UNL1 0.000
    27 H      -3.244478    -2.266879     0.243697 H          1 UNL1 0.000
    28 H      -5.032927    -3.986360     0.236740 H          1 UNL1 0.000
    29 H      -7.412106    -3.326450     0.312798 H          1 UNL1 0.000
    30 H      -8.050900    -0.933681     0.407166 H          1 UNL1 0.000
    31 H      -2.306949     0.817809     2.487057 H          1 UNL1 0.000
    32 H       0.139828     0.831330     2.530005 H          1 UNL1 0.000
    33 C       1.903096     0.601402     0.442746 C          1 UNL1 0.000
    34 C       2.619456     1.804807     0.360813 C          1 UNL1 0.000
    35 C       4.017974     1.806820     0.375836 C          1 UNL1 0.000
    36 C       4.720020     0.602429     0.475993 C          1 UNL1 0.000
    37 C       4.017169    -0.601984     0.567624 C          1 UNL1 0.000
    38 C       2.618756    -0.600748     0.551707 C          1 UNL1 0.000
    39 C       6.154047     0.602037     0.478801 C          1 UNL1 0.000
    40 N       7.314031     0.601923     0.483122 N          1 UNL1 0.000
    41 H       2.089409     2.751184     0.267694 H          1 UNL1 0.000
    42 H       4.550912     2.752787     0.299105 H          1 UNL1 0.000
    43 H       4.549115    -1.548711     0.642184 H          1 UNL1 0.000
    44 H       2.087964    -1.549591     0.609962 H          1 UNL1 0.000
@<TRIPOS>BOND
     1      1      2   2
     2      2      3   1
     3      3      4   2
     4      4      5   1
     5      5      6   2
     6      6      1   1
     7      4      7   1
     8      7      8   1
     9      8      9   2
    10      9     10   1
    11     10     11   2
    12     11     12   1
    13     12     13   2
    14     13      8   1
    15     13      5   1
    16     14     15   2
    17     15     16   1
    18     16     17   2
    19     17     18   1
    20     18     19   1
    21     19     14   1
    22     18     20   2
    23     20     21   1
    24     21     22   1
    25     22     19   2
    26      7     14   1
    27      1     23   1
    28      2     24   1
    29      3     25   1
    30      6     26   1
    31      9     27   1
    32     10     28   1
    33     11     29   1
    34     12     30   1
    35     15     31   1
    36     16     32   1
    37     33     34   2
    38     34     35   1
    39     35     36   2
    40     36     37   1
    41     37     38   2
    42     38     33   1
    43     39     40   3
    44     36     39   1
    45     34     41   1
    46     35     42   1
    47     37     43   1
    48     38     44   1
    49     17     33   1
