# Produced with molli package
@<TRIPOS>MOLECULE
G_8_Q
41 46 0 0 0
SMALL
USER_CHARGES

@<TRIPOS>ATOM
     1 C      -6.756881     3.609190     0.710133 C          1 UNL1 0.000
     2 C      -5.418340     3.985480     0.675026 C          1 UNL1 0.000
     3 C      -4.403828     3.025585     0.630146 C          1 UNL1 0.000
     4 C      -4.774207     1.668016     0.619119 C          1 UNL1 0.000
     5 C      -6.111091     1.267097     0.649251 C          1 UNL1 0.000
     6 C      -7.115528     2.257279     0.700300 C          1 UNL1 0.000
     7 N      -4.007166     0.517331     0.543520 N          1 UNL1 0.000
     8 C      -4.815309    -0.608279     0.551795 C          1 UNL1 0.000
     9 C      -4.493267    -1.977843     0.522349 C          1 UNL1 0.000
    10 C      -5.539728    -2.903234     0.558786 C          1 UNL1 0.000
    11 C      -6.863769    -2.481755     0.618944 C          1 UNL1 0.000
    12 C      -7.174701    -1.118358     0.647718 C          1 UNL1 0.000
    13 C      -6.136560    -0.162453     0.620166 C          1 UNL1 0.000
    14 C      -2.603748     0.491689     0.510671 C          1 UNL1 0.000
    15 C      -1.861544     0.677179     1.690535 C          1 UNL1 0.000
    16 C      -0.448476     0.639776     1.691754 C          1 UNL1 0.000
    17 C       0.337205     0.413907     0.532617 C          1 UNL1 0.000
    18 C      -0.384017     0.242379    -0.687332 C          1 UNL1 0.000
    19 C      -1.896694     0.283525    -0.697096 C          1 UNL1 0.000
    20 N       0.134946     0.038277    -1.909766 N          1 UNL1 0.000
    21 S      -1.138490    -0.039353    -2.969105 S          1 UNL1 0.000
    22 N      -2.415030     0.121840    -1.927217 N          1 UNL1 0.000
    23 H      -7.532630     4.370321     0.739461 H          1 UNL1 0.000
    24 H      -5.155979     5.041112     0.674402 H          1 UNL1 0.000
    25 H      -3.362129     3.329458     0.587429 H          1 UNL1 0.000
    26 H      -8.163714     1.973569     0.722489 H          1 UNL1 0.000
    27 H      -3.463082    -2.316901     0.472715 H          1 UNL1 0.000
    28 H      -5.314190    -3.967055     0.537691 H          1 UNL1 0.000
    29 H      -7.665051    -3.216124     0.643741 H          1 UNL1 0.000
    30 H      -8.211860    -0.799331     0.695591 H          1 UNL1 0.000
    31 H      -2.380554     0.838750     2.635864 H          1 UNL1 0.000
    32 H       0.067335     0.787368     2.643952 H          1 UNL1 0.000
    33 C       1.791178     0.379791     0.554629 C          1 UNL1 0.000
    34 N       2.406661     1.504674     1.004308 N          1 UNL1 0.000
    35 C       3.760301     1.477721     0.998391 C          1 UNL1 0.000
    36 C       4.483165     0.365016     0.603787 C          1 UNL1 0.000
    37 N       3.887077    -0.773117     0.188122 N          1 UNL1 0.000
    38 C       2.531289    -0.734542     0.161467 C          1 UNL1 0.000
    39 H       4.254464     2.387828     1.318950 H          1 UNL1 0.000
    40 H       5.567041     0.360247     0.609499 H          1 UNL1 0.000
    41 H       2.049855    -1.644854    -0.181326 H          1 UNL1 0.000
@<TRIPOS>BOND
     1      1      2   2
     2      2      3   1
     3      3      4   2
     4      4      5   1
     5      5      6   2
     6      6      1   1
     7      4      7   1
     8      7      8   1
     9      8      9   2
    10      9     10   1
    11     10     11   2
    12     11     12   1
    13     12     13   2
    14     13      8   1
    15     13      5   1
    16     14     15   2
    17     15     16   1
    18     16     17   2
    19     17     18   1
    20     18     19   1
    21     19     14   1
    22     18     20   2
    23     20     21   1
    24     21     22   1
    25     22     19   2
    26      7     14   1
    27      1     23   1
    28      2     24   1
    29      3     25   1
    30      6     26   1
    31      9     27   1
    32     10     28   1
    33     11     29   1
    34     12     30   1
    35     15     31   1
    36     16     32   1
    37     33     34   2
    38     34     35   1
    39     35     36   2
    40     36     37   1
    41     37     38   2
    42     38     33   1
    43     35     39   1
    44     36     40   1
    45     38     41   1
    46     17     33   1
