# Produced with molli package
@<TRIPOS>MOLECULE
G_8_S
48 53 0 0 0
SMALL
USER_CHARGES

@<TRIPOS>ATOM
     1 C      -6.760741     3.526128     0.628829 C          1 UNL1 0.000
     2 C      -5.429833     3.929052     0.602352 C          1 UNL1 0.000
     3 C      -4.396156     2.989554     0.557198 C          1 UNL1 0.000
     4 C      -4.738568     1.624695     0.543713 C          1 UNL1 0.000
     5 C      -6.067181     1.197286     0.578840 C          1 UNL1 0.000
     6 C      -7.091876     2.167343     0.615126 C          1 UNL1 0.000
     7 N      -3.946930     0.487983     0.514434 N          1 UNL1 0.000
     8 C      -4.732293    -0.652934     0.551407 C          1 UNL1 0.000
     9 C      -4.382704    -2.015970     0.535221 C          1 UNL1 0.000
    10 C      -5.411963    -2.961192     0.538934 C          1 UNL1 0.000
    11 C      -6.745135    -2.565394     0.559654 C          1 UNL1 0.000
    12 C      -7.083219    -1.208360     0.578109 C          1 UNL1 0.000
    13 C      -6.063435    -0.232655     0.570124 C          1 UNL1 0.000
    14 C      -2.542996     0.490254     0.490922 C          1 UNL1 0.000
    15 C      -1.811152     0.261895     1.669757 C          1 UNL1 0.000
    16 C      -0.397615     0.264926     1.681485 C          1 UNL1 0.000
    17 C       0.396751     0.477062     0.526970 C          1 UNL1 0.000
    18 C      -0.311969     0.694187    -0.694471 C          1 UNL1 0.000
    19 C      -1.825450     0.706874    -0.711523 C          1 UNL1 0.000
    20 N       0.219805     0.896453    -1.913045 N          1 UNL1 0.000
    21 S      -1.046131     1.076462    -2.967708 S          1 UNL1 0.000
    22 N      -2.333274     0.916882    -1.936799 N          1 UNL1 0.000
    23 H      -7.551613     4.271488     0.660151 H          1 UNL1 0.000
    24 H      -5.188552     4.989599     0.614211 H          1 UNL1 0.000
    25 H      -3.360412     3.314291     0.533081 H          1 UNL1 0.000
    26 H      -8.134217     1.862726     0.636802 H          1 UNL1 0.000
    27 H      -3.345322    -2.334625     0.502575 H          1 UNL1 0.000
    28 H      -5.165906    -4.020443     0.516497 H          1 UNL1 0.000
    29 H      -7.532755    -3.314853     0.555487 H          1 UNL1 0.000
    30 H      -8.127342    -0.909154     0.588903 H          1 UNL1 0.000
    31 H      -2.340472     0.097238     2.609372 H          1 UNL1 0.000
    32 H       0.105843     0.101687     2.636657 H          1 UNL1 0.000
    33 C       1.855345     0.478007     0.563686 C          1 UNL1 0.000
    34 C       2.568777     1.681799     0.638641 C          1 UNL1 0.000
    35 C       3.966664     1.682825     0.676111 C          1 UNL1 0.000
    36 C       4.680358     0.478639     0.633204 C          1 UNL1 0.000
    37 C       3.976530    -0.727401     0.553460 C          1 UNL1 0.000
    38 C       2.575923    -0.724653     0.525456 C          1 UNL1 0.000
    39 C       6.173143     0.538799     0.673350 C          1 UNL1 0.000
    40 C       6.965112    -0.733884     0.518230 C          1 UNL1 0.000
    41 O       6.737749     1.620879     0.810576 O          1 UNL1 0.000
    42 H       2.040365     2.633209     0.660986 H          1 UNL1 0.000
    43 H       4.495401     2.633141     0.730863 H          1 UNL1 0.000
    44 H       4.486111    -1.685001     0.509417 H          1 UNL1 0.000
    45 H       2.046739    -1.673937     0.459628 H          1 UNL1 0.000
    46 H       6.899321    -1.088454    -0.513464 H          1 UNL1 0.000
    47 H       6.621290    -1.499344     1.217539 H          1 UNL1 0.000
    48 H       8.015257    -0.530047     0.751004 H          1 UNL1 0.000
@<TRIPOS>BOND
     1      1      2   2
     2      2      3   1
     3      3      4   2
     4      4      5   1
     5      5      6   2
     6      6      1   1
     7      4      7   1
     8      7      8   1
     9      8      9   2
    10      9     10   1
    11     10     11   2
    12     11     12   1
    13     12     13   2
    14     13      8   1
    15     13      5   1
    16     14     15   2
    17     15     16   1
    18     16     17   2
    19     17     18   1
    20     18     19   1
    21     19     14   1
    22     18     20   2
    23     20     21   1
    24     21     22   1
    25     22     19   2
    26      7     14   1
    27      1     23   1
    28      2     24   1
    29      3     25   1
    30      6     26   1
    31      9     27   1
    32     10     28   1
    33     11     29   1
    34     12     30   1
    35     15     31   1
    36     16     32   1
    37     33     34   2
    38     34     35   1
    39     35     36   2
    40     36     37   1
    41     37     38   2
    42     38     33   1
    43     36     39   1
    44     39     40   1
    45     39     41   2
    46     34     42   1
    47     35     43   1
    48     37     44   1
    49     38     45   1
    50     40     46   1
    51     40     47   1
    52     40     48   1
    53     17     33   1
