# Produced with molli package
@<TRIPOS>MOLECULE
G_9_R
43 47 0 0 0
SMALL
USER_CHARGES

@<TRIPOS>ATOM
     1 C      -6.015855     3.637660    -0.648947 C          1 UNL1 0.000
     2 C      -4.681659     4.025258    -0.578255 C          1 UNL1 0.000
     3 C      -3.657200     3.074591    -0.561739 C          1 UNL1 0.000
     4 C      -4.013009     1.715038    -0.621555 C          1 UNL1 0.000
     5 C      -5.345290     1.302513    -0.695523 C          1 UNL1 0.000
     6 C      -6.360203     2.283276    -0.705032 C          1 UNL1 0.000
     7 N      -3.231929     0.571934    -0.651318 N          1 UNL1 0.000
     8 C      -4.029319    -0.559333    -0.731213 C          1 UNL1 0.000
     9 C      -3.690461    -1.924684    -0.771656 C          1 UNL1 0.000
    10 C      -4.726046    -2.860068    -0.838429 C          1 UNL1 0.000
    11 C      -6.055335    -2.451734    -0.866571 C          1 UNL1 0.000
    12 C      -6.382636    -1.092063    -0.826071 C          1 UNL1 0.000
    13 C      -5.355647    -0.126431    -0.752709 C          1 UNL1 0.000
    14 C      -1.822250     0.553229    -0.656098 C          1 UNL1 0.000
    15 C      -1.155151     0.389785    -1.871310 C          1 UNL1 0.000
    16 C       0.233616     0.316549    -1.872206 C          1 UNL1 0.000
    17 C       0.936316     0.370978    -0.664007 C          1 UNL1 0.000
    18 C       0.267771     0.515158     0.568066 C          1 UNL1 0.000
    19 C      -1.130560     0.633328     0.556916 C          1 UNL1 0.000
    20 H      -6.798807     4.391839    -0.663296 H          1 UNL1 0.000
    21 H      -4.429817     5.082635    -0.538086 H          1 UNL1 0.000
    22 H      -2.617110     3.384295    -0.511665 H          1 UNL1 0.000
    23 H      -7.404548     1.990534    -0.763321 H          1 UNL1 0.000
    24 H      -2.654544    -2.249820    -0.744774 H          1 UNL1 0.000
    25 H      -4.487616    -3.920863    -0.866651 H          1 UNL1 0.000
    26 H      -6.848286    -3.193736    -0.918469 H          1 UNL1 0.000
    27 H      -7.423922    -0.783843    -0.847190 H          1 UNL1 0.000
    28 H      -1.704680     0.330877    -2.807916 H          1 UNL1 0.000
    29 H       0.772593     0.210659    -2.810358 H          1 UNL1 0.000
    30 H       2.022992     0.307652    -0.689287 H          1 UNL1 0.000
    31 H      -1.672688     0.749005     1.494119 H          1 UNL1 0.000
    32 C       1.013269     0.508295     1.832035 C          1 UNL1 0.000
    33 N       0.852322     1.595490     2.629129 N          1 UNL1 0.000
    34 C       1.549623     1.632941     3.793646 C          1 UNL1 0.000
    35 C       2.395940     0.614895     4.201578 C          1 UNL1 0.000
    36 C       2.542984    -0.510113     3.391510 C          1 UNL1 0.000
    37 C       1.840594    -0.560374     2.187928 C          1 UNL1 0.000
    38 N       3.121485     0.732270     5.455575 N          1 UNL1 0.000
    39 O       4.064641    -0.048163     5.646152 O          1 UNL1 0.000
    40 O       2.754061     1.604408     6.254344 O          1 UNL1 0.000
    41 H       1.396696     2.535207     4.380903 H          1 UNL1 0.000
    42 H       3.185706    -1.339329     3.676959 H          1 UNL1 0.000
    43 H       1.930607    -1.428797     1.541050 H          1 UNL1 0.000
@<TRIPOS>BOND
     1      1      2   2
     2      2      3   1
     3      3      4   2
     4      4      5   1
     5      5      6   2
     6      6      1   1
     7      4      7   1
     8      7      8   1
     9      8      9   2
    10      9     10   1
    11     10     11   2
    12     11     12   1
    13     12     13   2
    14     13      8   1
    15     13      5   1
    16     14     15   2
    17     15     16   1
    18     16     17   2
    19     17     18   1
    20     18     19   2
    21     19     14   1
    22      7     14   1
    23      1     20   1
    24      2     21   1
    25      3     22   1
    26      6     23   1
    27      9     24   1
    28     10     25   1
    29     11     26   1
    30     12     27   1
    31     15     28   1
    32     16     29   1
    33     17     30   1
    34     19     31   1
    35     32     33   2
    36     33     34   1
    37     34     35   2
    38     35     36   1
    39     36     37   2
    40     37     32   1
    41     38     39   2
    42     38     40   1
    43     35     38   1
    44     34     41   1
    45     36     42   1
    46     37     43   1
    47     18     32   1
