# Produced with molli package
@<TRIPOS>MOLECULE
G_9_M
43 47 0 0 0
SMALL
USER_CHARGES

@<TRIPOS>ATOM
     1 C      -5.947950     3.583474    -0.746256 C          1 UNL1 0.000
     2 C      -4.612513     3.972848    -0.729757 C          1 UNL1 0.000
     3 C      -3.587874     3.022756    -0.704154 C          1 UNL1 0.000
     4 C      -3.944963     1.662078    -0.698225 C          1 UNL1 0.000
     5 C      -5.278189     1.247621    -0.718297 C          1 UNL1 0.000
     6 C      -6.293239     2.228045    -0.739565 C          1 UNL1 0.000
     7 N      -3.164420     0.518069    -0.685697 N          1 UNL1 0.000
     8 C      -3.961585    -0.614933    -0.703773 C          1 UNL1 0.000
     9 C      -3.622597    -1.980473    -0.704046 C          1 UNL1 0.000
    10 C      -4.659249    -2.917125    -0.720980 C          1 UNL1 0.000
    11 C      -5.989224    -2.509854    -0.736044 C          1 UNL1 0.000
    12 C      -6.316476    -1.149683    -0.734953 C          1 UNL1 0.000
    13 C      -5.288532    -0.182573    -0.718328 C          1 UNL1 0.000
    14 C      -1.755280     0.503733    -0.683731 C          1 UNL1 0.000
    15 C      -1.078088     0.419372    -1.900755 C          1 UNL1 0.000
    16 C       0.312439     0.371525    -1.893389 C          1 UNL1 0.000
    17 C       1.007250     0.395757    -0.679280 C          1 UNL1 0.000
    18 C       0.327209     0.476439     0.549992 C          1 UNL1 0.000
    19 C      -1.073510     0.538459     0.537078 C          1 UNL1 0.000
    20 H      -6.731537     4.336926    -0.767361 H          1 UNL1 0.000
    21 H      -4.360701     5.030952    -0.739164 H          1 UNL1 0.000
    22 H      -2.547094     3.333130    -0.695380 H          1 UNL1 0.000
    23 H      -7.338778     1.934045    -0.756008 H          1 UNL1 0.000
    24 H      -2.585954    -2.304551    -0.690443 H          1 UNL1 0.000
    25 H      -4.420961    -3.978376    -0.721832 H          1 UNL1 0.000
    26 H      -6.782601    -3.253137    -0.749005 H          1 UNL1 0.000
    27 H      -7.358146    -0.842242    -0.747633 H          1 UNL1 0.000
    28 H      -1.619902     0.390987    -2.843086 H          1 UNL1 0.000
    29 H       0.860193     0.310896    -2.830498 H          1 UNL1 0.000
    30 H       2.095291     0.355323    -0.695648 H          1 UNL1 0.000
    31 H      -1.628004     0.588797     1.472362 H          1 UNL1 0.000
    32 C       1.072301     0.479231     1.814125 C          1 UNL1 0.000
    33 C       1.099670     1.617826     2.633878 C          1 UNL1 0.000
    34 C       1.826415     1.623137     3.829520 C          1 UNL1 0.000
    35 C       2.533035     0.484337     4.226384 C          1 UNL1 0.000
    36 C       2.507499    -0.659015     3.423731 C          1 UNL1 0.000
    37 C       1.784046    -0.658737     2.226924 C          1 UNL1 0.000
    38 C       3.283606     0.489554     5.448016 C          1 UNL1 0.000
    39 N       3.894199     0.493067     6.434776 N          1 UNL1 0.000
    40 H       0.561960     2.516606     2.336132 H          1 UNL1 0.000
    41 H       1.838098     2.522556     4.442483 H          1 UNL1 0.000
    42 H       3.048338    -1.555949     3.720003 H          1 UNL1 0.000
    43 H       1.772070    -1.559531     1.615078 H          1 UNL1 0.000
@<TRIPOS>BOND
     1      1      2   2
     2      2      3   1
     3      3      4   2
     4      4      5   1
     5      5      6   2
     6      6      1   1
     7      4      7   1
     8      7      8   1
     9      8      9   2
    10      9     10   1
    11     10     11   2
    12     11     12   1
    13     12     13   2
    14     13      8   1
    15     13      5   1
    16     14     15   2
    17     15     16   1
    18     16     17   2
    19     17     18   1
    20     18     19   2
    21     19     14   1
    22      7     14   1
    23      1     20   1
    24      2     21   1
    25      3     22   1
    26      6     23   1
    27      9     24   1
    28     10     25   1
    29     11     26   1
    30     12     27   1
    31     15     28   1
    32     16     29   1
    33     17     30   1
    34     19     31   1
    35     32     33   2
    36     33     34   1
    37     34     35   2
    38     35     36   1
    39     36     37   2
    40     37     32   1
    41     38     39   3
    42     35     38   1
    43     33     40   1
    44     34     41   1
    45     36     42   1
    46     37     43   1
    47     18     32   1
