# Produced with molli package
@<TRIPOS>MOLECULE
G_9_Q
40 44 0 0 0
SMALL
USER_CHARGES

@<TRIPOS>ATOM
     1 C      -5.964740     3.635386    -0.735298 C          1 UNL1 0.000
     2 C      -4.627765     4.015311    -0.674741 C          1 UNL1 0.000
     3 C      -3.610072     3.058097    -0.646508 C          1 UNL1 0.000
     4 C      -3.975507     1.700376    -0.682206 C          1 UNL1 0.000
     5 C      -5.310393     1.295073    -0.742621 C          1 UNL1 0.000
     6 C      -6.318428     2.282484    -0.767943 C          1 UNL1 0.000
     7 N      -3.201659     0.551971    -0.684736 N          1 UNL1 0.000
     8 C      -4.005476    -0.575756    -0.736026 C          1 UNL1 0.000
     9 C      -3.675323    -1.943638    -0.751013 C          1 UNL1 0.000
    10 C      -4.717425    -2.873094    -0.803802 C          1 UNL1 0.000
    11 C      -6.044042    -2.456879    -0.842477 C          1 UNL1 0.000
    12 C      -6.362577    -1.094705    -0.827155 C          1 UNL1 0.000
    13 C      -5.329122    -0.134754    -0.770525 C          1 UNL1 0.000
    14 C      -1.792522     0.530180    -0.694501 C          1 UNL1 0.000
    15 C      -1.127618     0.451826    -1.919163 C          1 UNL1 0.000
    16 C       0.262854     0.405436    -1.928079 C          1 UNL1 0.000
    17 C       0.970647     0.416357    -0.721403 C          1 UNL1 0.000
    18 C       0.303357     0.486038     0.516938 C          1 UNL1 0.000
    19 C      -1.097683     0.560032     0.518344 C          1 UNL1 0.000
    20 H      -6.742525     4.394595    -0.758386 H          1 UNL1 0.000
    21 H      -4.368424     5.071272    -0.650198 H          1 UNL1 0.000
    22 H      -2.567614     3.360894    -0.600830 H          1 UNL1 0.000
    23 H      -7.365005     1.995935    -0.816856 H          1 UNL1 0.000
    24 H      -2.641594    -2.274996    -0.719159 H          1 UNL1 0.000
    25 H      -4.486042    -3.935860    -0.814082 H          1 UNL1 0.000
    26 H      -6.841744    -3.194464    -0.884211 H          1 UNL1 0.000
    27 H      -7.401603    -0.779980    -0.857677 H          1 UNL1 0.000
    28 H      -1.679726     0.436668    -2.855927 H          1 UNL1 0.000
    29 H       0.799831     0.362078    -2.872441 H          1 UNL1 0.000
    30 H       2.058909     0.386240    -0.752457 H          1 UNL1 0.000
    31 H      -1.637305     0.623339     1.462020 H          1 UNL1 0.000
    32 C       1.053820     0.470624     1.772891 C          1 UNL1 0.000
    33 N       0.981190     1.589428     2.537734 N          1 UNL1 0.000
    34 C       1.703978     1.568408     3.682174 C          1 UNL1 0.000
    35 C       2.461970     0.475098     4.066601 C          1 UNL1 0.000
    36 N       2.535003    -0.650919     3.324034 N          1 UNL1 0.000
    37 C       1.816733    -0.625635     2.173723 C          1 UNL1 0.000
    38 H       1.659895     2.466738     4.287296 H          1 UNL1 0.000
    39 H       3.034248     0.476676     4.987218 H          1 UNL1 0.000
    40 H       1.866006    -1.529731     1.575706 H          1 UNL1 0.000
@<TRIPOS>BOND
     1      1      2   2
     2      2      3   1
     3      3      4   2
     4      4      5   1
     5      5      6   2
     6      6      1   1
     7      4      7   1
     8      7      8   1
     9      8      9   2
    10      9     10   1
    11     10     11   2
    12     11     12   1
    13     12     13   2
    14     13      8   1
    15     13      5   1
    16     14     15   2
    17     15     16   1
    18     16     17   2
    19     17     18   1
    20     18     19   2
    21     19     14   1
    22      7     14   1
    23      1     20   1
    24      2     21   1
    25      3     22   1
    26      6     23   1
    27      9     24   1
    28     10     25   1
    29     11     26   1
    30     12     27   1
    31     15     28   1
    32     16     29   1
    33     17     30   1
    34     19     31   1
    35     32     33   2
    36     33     34   1
    37     34     35   2
    38     35     36   1
    39     36     37   2
    40     37     32   1
    41     34     38   1
    42     35     39   1
    43     37     40   1
    44     18     32   1
