# Produced with molli package
@<TRIPOS>MOLECULE
G_9_K
44 48 0 0 0
SMALL
USER_CHARGES

@<TRIPOS>ATOM
     1 C      -5.870631     3.616179    -0.808843 C          1 UNL1 0.000
     2 C      -4.526134     3.973102    -0.798451 C          1 UNL1 0.000
     3 C      -3.525194     2.998640    -0.762497 C          1 UNL1 0.000
     4 C      -3.915483     1.647229    -0.740217 C          1 UNL1 0.000
     5 C      -5.258192     1.265043    -0.755143 C          1 UNL1 0.000
     6 C      -6.248983     2.269702    -0.785815 C          1 UNL1 0.000
     7 N      -3.162580     0.484893    -0.720566 N          1 UNL1 0.000
     8 C      -3.986670    -0.628751    -0.725539 C          1 UNL1 0.000
     9 C      -3.681243    -2.002096    -0.708004 C          1 UNL1 0.000
    10 C      -4.740666    -2.913236    -0.707178 C          1 UNL1 0.000
    11 C      -6.060373    -2.473852    -0.723197 C          1 UNL1 0.000
    12 C      -6.354246    -1.106244    -0.740065 C          1 UNL1 0.000
    13 C      -5.302955    -0.164416    -0.739414 C          1 UNL1 0.000
    14 C      -1.754064     0.439667    -0.717609 C          1 UNL1 0.000
    15 C      -1.079274     0.284344    -1.928638 C          1 UNL1 0.000
    16 C       0.310543     0.224965    -1.919136 C          1 UNL1 0.000
    17 C       1.006455     0.303039    -0.707740 C          1 UNL1 0.000
    18 C       0.329416     0.449709     0.517693 C          1 UNL1 0.000
    19 C      -1.070740     0.529591     0.499721 C          1 UNL1 0.000
    20 H      -6.635536     4.388293    -0.838643 H          1 UNL1 0.000
    21 H      -4.248418     5.024479    -0.821871 H          1 UNL1 0.000
    22 H      -2.477120     3.283573    -0.760867 H          1 UNL1 0.000
    23 H      -7.301421     2.001262    -0.798186 H          1 UNL1 0.000
    24 H      -2.652914    -2.351494    -0.691593 H          1 UNL1 0.000
    25 H      -4.528578    -3.979955    -0.692309 H          1 UNL1 0.000
    26 H      -6.871786    -3.197549    -0.721748 H          1 UNL1 0.000
    27 H      -7.388159    -0.773567    -0.752058 H          1 UNL1 0.000
    28 H      -1.621856     0.217414    -2.868567 H          1 UNL1 0.000
    29 H       0.857259     0.115278    -2.852432 H          1 UNL1 0.000
    30 H       2.094151     0.253473    -0.725062 H          1 UNL1 0.000
    31 H      -1.626212     0.631780     1.430275 H          1 UNL1 0.000
    32 C       1.075215     0.498717     1.782908 C          1 UNL1 0.000
    33 C       1.008761     1.627141     2.619144 C          1 UNL1 0.000
    34 C       1.726554     1.677368     3.818295 C          1 UNL1 0.000
    35 C       2.521189     0.586838     4.185752 C          1 UNL1 0.000
    36 C       2.601553    -0.549392     3.375576 C          1 UNL1 0.000
    37 C       1.877148    -0.586986     2.181114 C          1 UNL1 0.000
    38 N       3.282558     0.636066     5.432718 N          1 UNL1 0.000
    39 O       2.839180     1.345950     6.346512 O          1 UNL1 0.000
    40 O       4.322907    -0.033964     5.494524 O          1 UNL1 0.000
    41 H       0.402038     2.484272     2.330028 H          1 UNL1 0.000
    42 H       1.664199     2.565693     4.443322 H          1 UNL1 0.000
    43 H       3.211523    -1.404210     3.659709 H          1 UNL1 0.000
    44 H       1.933119    -1.478855     1.558050 H          1 UNL1 0.000
@<TRIPOS>BOND
     1      1      2   2
     2      2      3   1
     3      3      4   2
     4      4      5   1
     5      5      6   2
     6      6      1   1
     7      4      7   1
     8      7      8   1
     9      8      9   2
    10      9     10   1
    11     10     11   2
    12     11     12   1
    13     12     13   2
    14     13      8   1
    15     13      5   1
    16     14     15   2
    17     15     16   1
    18     16     17   2
    19     17     18   1
    20     18     19   2
    21     19     14   1
    22      7     14   1
    23      1     20   1
    24      2     21   1
    25      3     22   1
    26      6     23   1
    27      9     24   1
    28     10     25   1
    29     11     26   1
    30     12     27   1
    31     15     28   1
    32     16     29   1
    33     17     30   1
    34     19     31   1
    35     32     33   2
    36     33     34   1
    37     34     35   2
    38     35     36   1
    39     36     37   2
    40     37     32   1
    41     38     39   2
    42     38     40   1
    43     35     38   1
    44     33     41   1
    45     34     42   1
    46     36     43   1
    47     37     44   1
    48     18     32   1
