# Produced with molli package
@<TRIPOS>MOLECULE
G_9_N
39 43 0 0 0
SMALL
USER_CHARGES

@<TRIPOS>ATOM
     1 C      -6.065289     3.600383    -0.643605 C          1 UNL1 0.000
     2 C      -4.734744     4.005599    -0.616112 C          1 UNL1 0.000
     3 C      -3.698591     3.068940    -0.656953 C          1 UNL1 0.000
     4 C      -4.038520     1.705692    -0.727747 C          1 UNL1 0.000
     5 C      -5.366427     1.275466    -0.758237 C          1 UNL1 0.000
     6 C      -6.393509     2.242373    -0.712992 C          1 UNL1 0.000
     7 N      -3.243063     0.573600    -0.795017 N          1 UNL1 0.000
     8 C      -4.025403    -0.567510    -0.860231 C          1 UNL1 0.000
     9 C      -3.669099    -1.926931    -0.928809 C          1 UNL1 0.000
    10 C      -4.694316    -2.875312    -0.974513 C          1 UNL1 0.000
    11 C      -6.029394    -2.485432    -0.954704 C          1 UNL1 0.000
    12 C      -6.373844    -1.131267    -0.886413 C          1 UNL1 0.000
    13 C      -5.357860    -0.152724    -0.835048 C          1 UNL1 0.000
    14 C      -1.834206     0.582878    -0.812604 C          1 UNL1 0.000
    15 C      -1.170123     0.553765    -2.041440 C          1 UNL1 0.000
    16 C       0.223227     0.573405    -2.057196 C          1 UNL1 0.000
    17 C       0.936536     0.609821    -0.855044 C          1 UNL1 0.000
    18 C       0.258796     0.624216     0.372070 C          1 UNL1 0.000
    19 C      -1.138290     0.620073     0.397992 C          1 UNL1 0.000
    20 H      -6.858122     4.343650    -0.612463 H          1 UNL1 0.000
    21 H      -4.495744     5.065376    -0.564082 H          1 UNL1 0.000
    22 H      -2.661587     3.391893    -0.639226 H          1 UNL1 0.000
    23 H      -7.435509     1.936333    -0.735593 H          1 UNL1 0.000
    24 H      -2.628496    -2.237783    -0.941029 H          1 UNL1 0.000
    25 H      -4.442771    -3.932362    -1.024592 H          1 UNL1 0.000
    26 H      -6.813529    -3.237721    -0.990647 H          1 UNL1 0.000
    27 H      -7.419220    -0.837248    -0.869732 H          1 UNL1 0.000
    28 H      -1.724697     0.525878    -2.976534 H          1 UNL1 0.000
    29 H       0.756864     0.558710    -3.004310 H          1 UNL1 0.000
    30 H       2.024321     0.617947    -0.879941 H          1 UNL1 0.000
    31 H      -1.673291     0.638060     1.344914 H          1 UNL1 0.000
    32 C       1.010436     0.641779     1.612466 C          1 UNL1 0.000
    33 C       1.204806    -0.511123     2.346637 C          1 UNL1 0.000
    34 S       2.129618    -0.230348     3.759957 S          1 UNL1 0.000
    35 C       2.275938     1.435648     3.399199 C          1 UNL1 0.000
    36 C       1.637196     1.769518     2.224800 C          1 UNL1 0.000
    37 H       0.854146    -1.510248     2.124478 H          1 UNL1 0.000
    38 H       2.823280     2.088763     4.064807 H          1 UNL1 0.000
    39 H       1.615694     2.776658     1.826464 H          1 UNL1 0.000
@<TRIPOS>BOND
     1      1      2   2
     2      2      3   1
     3      3      4   2
     4      4      5   1
     5      5      6   2
     6      6      1   1
     7      4      7   1
     8      7      8   1
     9      8      9   2
    10      9     10   1
    11     10     11   2
    12     11     12   1
    13     12     13   2
    14     13      8   1
    15     13      5   1
    16     14     15   2
    17     15     16   1
    18     16     17   2
    19     17     18   1
    20     18     19   2
    21     19     14   1
    22      7     14   1
    23      1     20   1
    24      2     21   1
    25      3     22   1
    26      6     23   1
    27      9     24   1
    28     10     25   1
    29     11     26   1
    30     12     27   1
    31     15     28   1
    32     16     29   1
    33     17     30   1
    34     19     31   1
    35     32     33   2
    36     33     34   1
    37     34     35   1
    38     35     36   2
    39     36     32   1
    40     33     37   1
    41     35     38   1
    42     36     39   1
    43     18     32   1
