# Produced with molli package
@<TRIPOS>MOLECULE
G_9_L
46 51 0 0 0
SMALL
USER_CHARGES

@<TRIPOS>ATOM
     1 C      -6.019524     3.538599    -0.689463 C          1 UNL1 0.000
     2 C      -4.691920     3.953136    -0.661233 C          1 UNL1 0.000
     3 C      -3.649993     3.022291    -0.637671 C          1 UNL1 0.000
     4 C      -3.981401     1.655038    -0.641598 C          1 UNL1 0.000
     5 C      -5.306085     1.215370    -0.665435 C          1 UNL1 0.000
     6 C      -6.339201     2.176708    -0.692215 C          1 UNL1 0.000
     7 N      -3.178358     0.526397    -0.621775 N          1 UNL1 0.000
     8 C      -3.953622    -0.621681    -0.627560 C          1 UNL1 0.000
     9 C      -3.588868    -1.980405    -0.619808 C          1 UNL1 0.000
    10 C      -4.607527    -2.936586    -0.646860 C          1 UNL1 0.000
    11 C      -5.944802    -2.554862    -0.680039 C          1 UNL1 0.000
    12 C      -6.297788    -1.201240    -0.686051 C          1 UNL1 0.000
    13 C      -5.288576    -0.214763    -0.660694 C          1 UNL1 0.000
    14 C      -1.769575     0.543143    -0.646089 C          1 UNL1 0.000
    15 C      -1.115762     0.612750    -1.877486 C          1 UNL1 0.000
    16 C       0.275819     0.619771    -1.900865 C          1 UNL1 0.000
    17 C       0.995667     0.564954    -0.702824 C          1 UNL1 0.000
    18 C       0.337831     0.502892     0.538504 C          1 UNL1 0.000
    19 C      -1.063448     0.487451     0.559000 C          1 UNL1 0.000
    20 H      -6.816926     4.277344    -0.708903 H          1 UNL1 0.000
    21 H      -4.459533     5.015639    -0.657198 H          1 UNL1 0.000
    22 H      -2.615140     3.351518    -0.614160 H          1 UNL1 0.000
    23 H      -7.378842     1.863116    -0.714254 H          1 UNL1 0.000
    24 H      -2.546239    -2.284356    -0.596887 H          1 UNL1 0.000
    25 H      -4.348892    -3.993035    -0.643558 H          1 UNL1 0.000
    26 H      -6.723601    -3.313099    -0.702767 H          1 UNL1 0.000
    27 H      -7.344705    -0.913430    -0.713989 H          1 UNL1 0.000
    28 H      -1.676751     0.653929    -2.807973 H          1 UNL1 0.000
    29 H       0.804719     0.668415    -2.849241 H          1 UNL1 0.000
    30 H       2.083927     0.576036    -0.737486 H          1 UNL1 0.000
    31 H      -1.594318     0.435557     1.507669 H          1 UNL1 0.000
    32 C       1.107805     0.462402     1.784694 C          1 UNL1 0.000
    33 C       1.326002     1.634305     2.522738 C          1 UNL1 0.000
    34 C       2.069618     1.632209     3.709135 C          1 UNL1 0.000
    35 C       2.591229     0.408936     4.140872 C          1 UNL1 0.000
    36 C       2.396432    -0.780976     3.441011 C          1 UNL1 0.000
    37 C       1.646438    -0.751847     2.248346 C          1 UNL1 0.000
    38 N       3.349005     0.106845     5.250127 N          1 UNL1 0.000
    39 C       3.636978    -1.232153     5.276215 C          1 UNL1 0.000
    40 C       3.059342    -1.808174     4.167901 C          1 UNL1 0.000
    41 H       0.914517     2.577805     2.166927 H          1 UNL1 0.000
    42 H       2.231581     2.549593     4.265168 H          1 UNL1 0.000
    43 H       1.486017    -1.670785     1.690837 H          1 UNL1 0.000
    44 H       3.645663     0.780972     5.941889 H          1 UNL1 0.000
    45 H       4.225176    -1.657674     6.078012 H          1 UNL1 0.000
    46 H       3.106477    -2.856635     3.904709 H          1 UNL1 0.000
@<TRIPOS>BOND
     1      1      2   2
     2      2      3   1
     3      3      4   2
     4      4      5   1
     5      5      6   2
     6      6      1   1
     7      4      7   1
     8      7      8   1
     9      8      9   2
    10      9     10   1
    11     10     11   2
    12     11     12   1
    13     12     13   2
    14     13      8   1
    15     13      5   1
    16     14     15   2
    17     15     16   1
    18     16     17   2
    19     17     18   1
    20     18     19   2
    21     19     14   1
    22      7     14   1
    23      1     20   1
    24      2     21   1
    25      3     22   1
    26      6     23   1
    27      9     24   1
    28     10     25   1
    29     11     26   1
    30     12     27   1
    31     15     28   1
    32     16     29   1
    33     17     30   1
    34     19     31   1
    35     32     33   2
    36     33     34   1
    37     34     35   2
    38     35     36   1
    39     36     37   2
    40     37     32   1
    41     35     38   1
    42     38     39   1
    43     39     40   2
    44     40     36   1
    45     33     41   1
    46     34     42   1
    47     37     43   1
    48     38     44   1
    49     39     45   1
    50     40     46   1
    51     18     32   1
