# Produced with molli package
@<TRIPOS>MOLECULE
G_9_P
46 50 0 0 0
SMALL
USER_CHARGES

@<TRIPOS>ATOM
     1 C      -5.952757     3.558743    -0.764215 C          1 UNL1 0.000
     2 C      -4.623189     3.964364    -0.708599 C          1 UNL1 0.000
     3 C      -3.587490     3.026670    -0.678215 C          1 UNL1 0.000
     4 C      -3.927052     1.661812    -0.704931 C          1 UNL1 0.000
     5 C      -5.254137     1.231054    -0.758834 C          1 UNL1 0.000
     6 C      -6.280686     2.199161    -0.788446 C          1 UNL1 0.000
     7 N      -3.131593     0.527749    -0.703316 N          1 UNL1 0.000
     8 C      -3.914187    -0.614919    -0.736124 C          1 UNL1 0.000
     9 C      -3.558255    -1.976151    -0.731844 C          1 UNL1 0.000
    10 C      -4.582817    -2.925457    -0.771831 C          1 UNL1 0.000
    11 C      -5.917042    -2.534703    -0.816991 C          1 UNL1 0.000
    12 C      -6.261198    -1.178707    -0.818875 C          1 UNL1 0.000
    13 C      -5.245914    -0.199074    -0.774117 C          1 UNL1 0.000
    14 C      -1.722528     0.534208    -0.712536 C          1 UNL1 0.000
    15 C      -1.052807     0.469400    -1.935096 C          1 UNL1 0.000
    16 C       0.339253     0.463093    -1.939739 C          1 UNL1 0.000
    17 C       1.044415     0.510834    -0.731935 C          1 UNL1 0.000
    18 C       0.370752     0.574214     0.500577 C          1 UNL1 0.000
    19 C      -1.031455     0.591195     0.500646 C          1 UNL1 0.000
    20 H      -6.745074     4.302749    -0.790093 H          1 UNL1 0.000
    21 H      -4.384490     5.025321    -0.690817 H          1 UNL1 0.000
    22 H      -2.551071     3.349417    -0.638965 H          1 UNL1 0.000
    23 H      -7.321758     1.892495    -0.832987 H          1 UNL1 0.000
    24 H      -2.518194    -2.287025    -0.694160 H          1 UNL1 0.000
    25 H      -4.331351    -3.983649    -0.766785 H          1 UNL1 0.000
    26 H      -6.700665    -3.287647    -0.849200 H          1 UNL1 0.000
    27 H      -7.305960    -0.883947    -0.852456 H          1 UNL1 0.000
    28 H      -1.601799     0.429443    -2.872813 H          1 UNL1 0.000
    29 H       0.879671     0.420981    -2.882062 H          1 UNL1 0.000
    30 H       2.132838     0.505588    -0.754937 H          1 UNL1 0.000
    31 H      -1.576136     0.631854     1.442268 H          1 UNL1 0.000
    32 C       1.115889     0.619967     1.762001 C          1 UNL1 0.000
    33 C       1.744204    -0.529800     2.268749 C          1 UNL1 0.000
    34 C       2.431406    -0.491714     3.485434 C          1 UNL1 0.000
    35 C       2.507626     0.704332     4.194321 C          1 UNL1 0.000
    36 C       1.880039     1.851014     3.717673 C          1 UNL1 0.000
    37 C       1.194087     1.810322     2.502161 C          1 UNL1 0.000
    38 O       3.126373     0.764980     5.412478 O          1 UNL1 0.000
    39 C       4.544658     0.754446     5.255895 C          1 UNL1 0.000
    40 H       1.679763    -1.470030     1.724632 H          1 UNL1 0.000
    41 H       2.883621    -1.395933     3.881389 H          1 UNL1 0.000
    42 H       1.922583     2.772733     4.290225 H          1 UNL1 0.000
    43 H       0.712762     2.714041     2.134407 H          1 UNL1 0.000
    44 H       4.988916     0.988378     6.228176 H          1 UNL1 0.000
    45 H       4.875423     1.517463     4.541877 H          1 UNL1 0.000
    46 H       4.898700    -0.235525     4.950572 H          1 UNL1 0.000
@<TRIPOS>BOND
     1      1      2   2
     2      2      3   1
     3      3      4   2
     4      4      5   1
     5      5      6   2
     6      6      1   1
     7      4      7   1
     8      7      8   1
     9      8      9   2
    10      9     10   1
    11     10     11   2
    12     11     12   1
    13     12     13   2
    14     13      8   1
    15     13      5   1
    16     14     15   2
    17     15     16   1
    18     16     17   2
    19     17     18   1
    20     18     19   2
    21     19     14   1
    22      7     14   1
    23      1     20   1
    24      2     21   1
    25      3     22   1
    26      6     23   1
    27      9     24   1
    28     10     25   1
    29     11     26   1
    30     12     27   1
    31     15     28   1
    32     16     29   1
    33     17     30   1
    34     19     31   1
    35     32     33   2
    36     33     34   1
    37     34     35   2
    38     35     36   1
    39     36     37   2
    40     37     32   1
    41     38     39   1
    42     35     38   1
    43     33     40   1
    44     34     41   1
    45     36     42   1
    46     37     43   1
    47     39     44   1
    48     39     45   1
    49     39     46   1
    50     18     32   1
