# Produced with molli package
@<TRIPOS>MOLECULE
G_9_S
47 51 0 0 0
SMALL
USER_CHARGES

@<TRIPOS>ATOM
     1 C      -5.959343     3.621557    -0.808569 C          1 UNL1 0.000
     2 C      -4.623918     4.004436    -0.736290 C          1 UNL1 0.000
     3 C      -3.606161     3.049492    -0.661896 C          1 UNL1 0.000
     4 C      -3.969934     1.690559    -0.662726 C          1 UNL1 0.000
     5 C      -5.303380     1.282741    -0.734657 C          1 UNL1 0.000
     6 C      -6.311514     2.267915    -0.807538 C          1 UNL1 0.000
     7 N      -3.195676     0.542859    -0.613767 N          1 UNL1 0.000
     8 C      -3.998235    -0.586176    -0.651055 C          1 UNL1 0.000
     9 C      -3.667357    -1.953517    -0.629758 C          1 UNL1 0.000
    10 C      -4.707686    -2.884751    -0.686610 C          1 UNL1 0.000
    11 C      -6.033504    -2.470662    -0.762242 C          1 UNL1 0.000
    12 C      -6.352840    -1.108867    -0.781888 C          1 UNL1 0.000
    13 C      -5.321173    -0.147200    -0.725030 C          1 UNL1 0.000
    14 C      -1.786163     0.522674    -0.607605 C          1 UNL1 0.000
    15 C      -1.109816     0.460153    -1.827091 C          1 UNL1 0.000
    16 C       0.280675     0.418840    -1.823770 C          1 UNL1 0.000
    17 C       0.977380     0.432070    -0.611133 C          1 UNL1 0.000
    18 C       0.299097     0.493435     0.620261 C          1 UNL1 0.000
    19 C      -1.102542     0.544472     0.612567 C          1 UNL1 0.000
    20 H      -6.737270     4.378747    -0.868688 H          1 UNL1 0.000
    21 H      -4.366335     5.061195    -0.739926 H          1 UNL1 0.000
    22 H      -2.565180     3.354990    -0.609312 H          1 UNL1 0.000
    23 H      -7.356839     1.978965    -0.867948 H          1 UNL1 0.000
    24 H      -2.633988    -2.282868    -0.571436 H          1 UNL1 0.000
    25 H      -4.475599    -3.947253    -0.672466 H          1 UNL1 0.000
    26 H      -6.829704    -3.209635    -0.807742 H          1 UNL1 0.000
    27 H      -7.391095    -0.795758    -0.843590 H          1 UNL1 0.000
    28 H      -1.653319     0.444761    -2.768851 H          1 UNL1 0.000
    29 H       0.826588     0.375698    -2.762804 H          1 UNL1 0.000
    30 H       2.065719     0.402078    -0.629250 H          1 UNL1 0.000
    31 H      -1.653932     0.585687     1.549995 H          1 UNL1 0.000
    32 C       1.052070     0.499543     1.879076 C          1 UNL1 0.000
    33 C       1.141138     1.659609     2.658819 C          1 UNL1 0.000
    34 C       1.884282     1.668447     3.844199 C          1 UNL1 0.000
    35 C       2.549420     0.514363     4.280577 C          1 UNL1 0.000
    36 C       2.470616    -0.646318     3.505433 C          1 UNL1 0.000
    37 C       1.725140    -0.650880     2.318661 C          1 UNL1 0.000
    38 C       3.327627     0.593155     5.554321 C          1 UNL1 0.000
    39 C       3.856474    -0.660571     6.203475 C          1 UNL1 0.000
    40 O       3.543897     1.692362     6.062558 O          1 UNL1 0.000
    41 H       0.643733     2.573764     2.339723 H          1 UNL1 0.000
    42 H       1.944291     2.588237     4.424216 H          1 UNL1 0.000
    43 H       2.985773    -1.559894     3.784235 H          1 UNL1 0.000
    44 H       1.672282    -1.566009     1.730465 H          1 UNL1 0.000
    45 H       4.923778    -0.756316     5.988367 H          1 UNL1 0.000
    46 H       3.331875    -1.561276     5.883700 H          1 UNL1 0.000
    47 H       3.708437    -0.579406     7.285145 H          1 UNL1 0.000
@<TRIPOS>BOND
     1      1      2   2
     2      2      3   1
     3      3      4   2
     4      4      5   1
     5      5      6   2
     6      6      1   1
     7      4      7   1
     8      7      8   1
     9      8      9   2
    10      9     10   1
    11     10     11   2
    12     11     12   1
    13     12     13   2
    14     13      8   1
    15     13      5   1
    16     14     15   2
    17     15     16   1
    18     16     17   2
    19     17     18   1
    20     18     19   2
    21     19     14   1
    22      7     14   1
    23      1     20   1
    24      2     21   1
    25      3     22   1
    26      6     23   1
    27      9     24   1
    28     10     25   1
    29     11     26   1
    30     12     27   1
    31     15     28   1
    32     16     29   1
    33     17     30   1
    34     19     31   1
    35     32     33   2
    36     33     34   1
    37     34     35   2
    38     35     36   1
    39     36     37   2
    40     37     32   1
    41     35     38   1
    42     38     39   1
    43     38     40   2
    44     33     41   1
    45     34     42   1
    46     36     43   1
    47     37     44   1
    48     39     45   1
    49     39     46   1
    50     39     47   1
    51     18     32   1
