# Produced with molli package
@<TRIPOS>MOLECULE
G_9_T
45 49 0 0 0
SMALL
USER_CHARGES

@<TRIPOS>ATOM
     1 C      -5.881598     3.599287    -0.662543 C          1 UNL1 0.000
     2 C      -4.542421     3.971115    -0.610517 C          1 UNL1 0.000
     3 C      -3.528615     3.008859    -0.620796 C          1 UNL1 0.000
     4 C      -3.900122     1.653159    -0.688659 C          1 UNL1 0.000
     5 C      -5.237805     1.257451    -0.749585 C          1 UNL1 0.000
     6 C      -6.241939     2.249515    -0.728567 C          1 UNL1 0.000
     7 N      -3.131762     0.501854    -0.755690 N          1 UNL1 0.000
     8 C      -3.944964    -0.618707    -0.838974 C          1 UNL1 0.000
     9 C      -3.625067    -1.988154    -0.890766 C          1 UNL1 0.000
    10 C      -4.673009    -2.910655    -0.939788 C          1 UNL1 0.000
    11 C      -5.997438    -2.485797    -0.940833 C          1 UNL1 0.000
    12 C      -6.306445    -1.122492    -0.887369 C          1 UNL1 0.000
    13 C      -5.266620    -0.170019    -0.826574 C          1 UNL1 0.000
    14 C      -1.721270     0.466633    -0.762904 C          1 UNL1 0.000
    15 C      -1.057545     0.164616    -1.953547 C          1 UNL1 0.000
    16 C       0.331147     0.081953    -1.949300 C          1 UNL1 0.000
    17 C       1.037040     0.257682    -0.754999 C          1 UNL1 0.000
    18 C       0.371323     0.535058     0.453308 C          1 UNL1 0.000
    19 C      -1.024804     0.668100     0.433778 C          1 UNL1 0.000
    20 H      -6.656435     4.361979    -0.657389 H          1 UNL1 0.000
    21 H      -4.278191     5.025406    -0.567569 H          1 UNL1 0.000
    22 H      -2.484825     3.307288    -0.593302 H          1 UNL1 0.000
    23 H      -7.290061     1.968899    -0.774497 H          1 UNL1 0.000
    24 H      -2.592984    -2.327374    -0.877727 H          1 UNL1 0.000
    25 H      -4.447840    -3.974143    -0.972051 H          1 UNL1 0.000
    26 H      -6.800187    -3.217953    -0.977486 H          1 UNL1 0.000
    27 H      -7.344227    -0.801514    -0.882524 H          1 UNL1 0.000
    28 H      -1.608593     0.009356    -2.878146 H          1 UNL1 0.000
    29 H       0.867654    -0.132872    -2.869791 H          1 UNL1 0.000
    30 H       2.122196     0.167824    -0.765978 H          1 UNL1 0.000
    31 H      -1.566152     0.864488     1.357403 H          1 UNL1 0.000
    32 C       1.121268     0.621243     1.712259 C          1 UNL1 0.000
    33 C       1.204364     1.818780     2.434719 C          1 UNL1 0.000
    34 C       1.925525     1.884658     3.632429 C          1 UNL1 0.000
    35 C       2.575031     0.751771     4.134426 C          1 UNL1 0.000
    36 C       2.489187    -0.449051     3.423770 C          1 UNL1 0.000
    37 C       1.772682    -0.511328     2.226052 C          1 UNL1 0.000
    38 C       3.347000     0.804363     5.419218 C          1 UNL1 0.000
    39 H       0.713301     2.715411     2.062723 H          1 UNL1 0.000
    40 H       1.975707     2.829999     4.167808 H          1 UNL1 0.000
    41 H       2.977886    -1.345629     3.798470 H          1 UNL1 0.000
    42 H       1.714780    -1.459860     1.695504 H          1 UNL1 0.000
    43 H       4.382126     0.489707     5.250522 H          1 UNL1 0.000
    44 H       2.887381     0.144302     6.161894 H          1 UNL1 0.000
    45 H       3.369173     1.817211     5.834093 H          1 UNL1 0.000
@<TRIPOS>BOND
     1      1      2   2
     2      2      3   1
     3      3      4   2
     4      4      5   1
     5      5      6   2
     6      6      1   1
     7      4      7   1
     8      7      8   1
     9      8      9   2
    10      9     10   1
    11     10     11   2
    12     11     12   1
    13     12     13   2
    14     13      8   1
    15     13      5   1
    16     14     15   2
    17     15     16   1
    18     16     17   2
    19     17     18   1
    20     18     19   2
    21     19     14   1
    22      7     14   1
    23      1     20   1
    24      2     21   1
    25      3     22   1
    26      6     23   1
    27      9     24   1
    28     10     25   1
    29     11     26   1
    30     12     27   1
    31     15     28   1
    32     16     29   1
    33     17     30   1
    34     19     31   1
    35     32     33   2
    36     33     34   1
    37     34     35   2
    38     35     36   1
    39     36     37   2
    40     37     32   1
    41     35     38   1
    42     33     39   1
    43     34     40   1
    44     36     41   1
    45     37     42   1
    46     38     43   1
    47     38     44   1
    48     38     45   1
    49     18     32   1
