# Produced with molli package
@<TRIPOS>MOLECULE
G_9_O
41 45 0 0 0
SMALL
USER_CHARGES

@<TRIPOS>ATOM
     1 C      -5.856414     3.688398    -0.423022 C          1 UNL1 0.000
     2 C      -4.507972     4.016941    -0.334339 C          1 UNL1 0.000
     3 C      -3.521053     3.029979    -0.414567 C          1 UNL1 0.000
     4 C      -3.926877     1.693871    -0.591093 C          1 UNL1 0.000
     5 C      -5.275696     1.343684    -0.692451 C          1 UNL1 0.000
     6 C      -6.252052     2.358764    -0.596882 C          1 UNL1 0.000
     7 N      -3.189338     0.530449    -0.757544 N          1 UNL1 0.000
     8 C      -4.037999    -0.555704    -0.929706 C          1 UNL1 0.000
     9 C      -3.761570    -1.929274    -1.073988 C          1 UNL1 0.000
    10 C      -4.836446    -2.814238    -1.186269 C          1 UNL1 0.000
    11 C      -6.146615    -2.350310    -1.159060 C          1 UNL1 0.000
    12 C      -6.413758    -0.985163    -1.010665 C          1 UNL1 0.000
    13 C      -5.345330    -0.071241    -0.881108 C          1 UNL1 0.000
    14 C      -1.778001     0.448258    -0.760764 C          1 UNL1 0.000
    15 C      -1.123190     0.033326    -1.922226 C          1 UNL1 0.000
    16 C       0.260861    -0.099220    -1.907460 C          1 UNL1 0.000
    17 C       0.971609     0.125024    -0.723642 C          1 UNL1 0.000
    18 C       0.319556     0.501136     0.468333 C          1 UNL1 0.000
    19 C      -1.070592     0.706031     0.419059 C          1 UNL1 0.000
    20 H      -6.609847     4.469684    -0.362075 H          1 UNL1 0.000
    21 H      -4.214385     5.056449    -0.207042 H          1 UNL1 0.000
    22 H      -2.469759     3.298544    -0.358081 H          1 UNL1 0.000
    23 H      -7.307247     2.111679    -0.670089 H          1 UNL1 0.000
    24 H      -2.741715    -2.302768    -1.076482 H          1 UNL1 0.000
    25 H      -4.642918    -3.879646    -1.287600 H          1 UNL1 0.000
    26 H      -6.971373    -3.053398    -1.243716 H          1 UNL1 0.000
    27 H      -7.441015    -0.634138    -0.979150 H          1 UNL1 0.000
    28 H      -1.676572    -0.159416    -2.838352 H          1 UNL1 0.000
    29 H       0.789526    -0.388973    -2.812032 H          1 UNL1 0.000
    30 H       2.052822     0.000669    -0.738886 H          1 UNL1 0.000
    31 H      -1.601912     0.995737     1.325234 H          1 UNL1 0.000
    32 C       1.051836     0.619893     1.742779 C          1 UNL1 0.000
    33 N       0.678135     1.639343     2.556078 N          1 UNL1 0.000
    34 C       1.304024     1.750663     3.749449 C          1 UNL1 0.000
    35 C       2.289737     0.884787     4.190450 C          1 UNL1 0.000
    36 C       2.660355    -0.160739     3.357063 C          1 UNL1 0.000
    37 C       2.036752    -0.296382     2.119244 C          1 UNL1 0.000
    38 H       0.976223     2.582952     4.365800 H          1 UNL1 0.000
    39 H       2.751976     1.018130     5.161825 H          1 UNL1 0.000
    40 H       3.419876    -0.871987     3.668602 H          1 UNL1 0.000
    41 H       2.301618    -1.127835     1.473832 H          1 UNL1 0.000
@<TRIPOS>BOND
     1      1      2   2
     2      2      3   1
     3      3      4   2
     4      4      5   1
     5      5      6   2
     6      6      1   1
     7      4      7   1
     8      7      8   1
     9      8      9   2
    10      9     10   1
    11     10     11   2
    12     11     12   1
    13     12     13   2
    14     13      8   1
    15     13      5   1
    16     14     15   2
    17     15     16   1
    18     16     17   2
    19     17     18   1
    20     18     19   2
    21     19     14   1
    22      7     14   1
    23      1     20   1
    24      2     21   1
    25      3     22   1
    26      6     23   1
    27      9     24   1
    28     10     25   1
    29     11     26   1
    30     12     27   1
    31     15     28   1
    32     16     29   1
    33     17     30   1
    34     19     31   1
    35     32     33   2
    36     33     34   1
    37     34     35   2
    38     35     36   1
    39     36     37   2
    40     37     32   1
    41     34     38   1
    42     35     39   1
    43     36     40   1
    44     37     41   1
    45     18     32   1
