# Produced with molli package
@<TRIPOS>MOLECULE
H_10_L
47 52 0 0 0
SMALL
USER_CHARGES

@<TRIPOS>ATOM
     1 N      -3.157337     0.583131     1.717399 N          1 UNL1 0.000
     2 C      -3.847593    -0.692212     1.736420 C          1 UNL1 0.000
     3 C      -3.847166     1.858285     1.717764 C          1 UNL1 0.000
     4 C      -5.248413     1.966051     1.725750 C          1 UNL1 0.000
     5 C      -5.868806     3.232214     1.727728 C          1 UNL1 0.000
     6 C      -5.120375     4.404966     1.723354 C          1 UNL1 0.000
     7 C      -3.738466     4.324852     1.715663 C          1 UNL1 0.000
     8 C      -3.115026     3.073076     1.711812 C          1 UNL1 0.000
     9 C      -3.115892    -1.907425     1.742407 C          1 UNL1 0.000
    10 C      -3.739383    -3.158893     1.770464 C          1 UNL1 0.000
    11 C      -5.121100    -3.238526     1.791868 C          1 UNL1 0.000
    12 C      -5.869255    -2.065608     1.781371 C          1 UNL1 0.000
    13 C      -5.248748    -0.799701     1.752366 C          1 UNL1 0.000
    14 S      -6.354448     0.583264     1.736370 S          1 UNL1 0.000
    15 C      -1.718381     0.582306     1.727409 C          1 UNL1 0.000
    16 C      -1.022502     0.582266     2.942561 C          1 UNL1 0.000
    17 C       0.365321     0.568852     2.933640 C          1 UNL1 0.000
    18 C       1.079115     0.552949     1.739047 C          1 UNL1 0.000
    19 C       0.403018     0.554255     0.511189 C          1 UNL1 0.000
    20 C      -1.001027     0.572303     0.517297 C          1 UNL1 0.000
    21 F       1.030819     0.567450     4.096151 F          1 UNL1 0.000
    22 H      -6.954892     3.309861     1.733972 H          1 UNL1 0.000
    23 H      -5.616839     5.371363     1.726593 H          1 UNL1 0.000
    24 H      -3.137529     5.230608     1.713464 H          1 UNL1 0.000
    25 H      -2.028183     3.073864     1.705505 H          1 UNL1 0.000
    26 H      -2.029145    -1.909382     1.725372 H          1 UNL1 0.000
    27 H      -3.138418    -4.064670     1.775914 H          1 UNL1 0.000
    28 H      -5.617440    -4.204717     1.815169 H          1 UNL1 0.000
    29 H      -6.955253    -2.143058     1.796273 H          1 UNL1 0.000
    30 H      -1.556720     0.589085     3.887163 H          1 UNL1 0.000
    31 H       2.165353     0.540200     1.774370 H          1 UNL1 0.000
    32 H      -1.548794     0.567215    -0.423976 H          1 UNL1 0.000
    33 C       1.147410     0.523481    -0.750360 C          1 UNL1 0.000
    34 C       1.348256     1.696774    -1.490642 C          1 UNL1 0.000
    35 C       2.060019     1.695485    -2.696938 C          1 UNL1 0.000
    36 C       2.565395     0.471899    -3.147299 C          1 UNL1 0.000
    37 C       2.388131    -0.718992    -2.444731 C          1 UNL1 0.000
    38 C       1.672771    -0.690359    -1.231276 C          1 UNL1 0.000
    39 N       3.287986     0.169466    -4.279783 N          1 UNL1 0.000
    40 C       3.569781    -1.170584    -4.317800 C          1 UNL1 0.000
    41 C       3.025484    -1.746879    -3.192871 C          1 UNL1 0.000
    42 H       0.948069     2.640857    -1.123899 H          1 UNL1 0.000
    43 H       2.208788     2.613631    -3.255671 H          1 UNL1 0.000
    44 H       1.525338    -1.611775    -0.674212 H          1 UNL1 0.000
    45 H       3.564937     0.843573    -4.979954 H          1 UNL1 0.000
    46 H       4.130416    -1.596858    -5.138724 H          1 UNL1 0.000
    47 H       3.077031    -2.796134    -2.933621 H          1 UNL1 0.000
@<TRIPOS>BOND
     1      1      2   1
     2      1      3   1
     3      3      4   2
     4      4      5   1
     5      5      6   2
     6      6      7   1
     7      7      8   2
     8      8      3   1
     9      2      9   2
    10      9     10   1
    11     10     11   2
    12     11     12   1
    13     12     13   2
    14     13      2   1
    15      4     14   1
    16     14     13   1
    17     15     16   2
    18     16     17   1
    19     17     18   2
    20     18     19   1
    21     19     20   2
    22     20     15   1
    23     17     21   1
    24      1     15   1
    25      5     22   1
    26      6     23   1
    27      7     24   1
    28      8     25   1
    29      9     26   1
    30     10     27   1
    31     11     28   1
    32     12     29   1
    33     16     30   1
    34     18     31   1
    35     20     32   1
    36     33     34   2
    37     34     35   1
    38     35     36   2
    39     36     37   1
    40     37     38   2
    41     38     33   1
    42     36     39   1
    43     39     40   1
    44     40     41   2
    45     41     37   1
    46     34     42   1
    47     35     43   1
    48     38     44   1
    49     39     45   1
    50     40     46   1
    51     41     47   1
    52     19     33   1
