# Produced with molli package
@<TRIPOS>MOLECULE
H_10_P
47 51 0 0 0
SMALL
USER_CHARGES

@<TRIPOS>ATOM
     1 N      -3.167816     0.594801     1.594693 N          1 UNL1 0.000
     2 C      -3.837713    -0.691693     1.623606 C          1 UNL1 0.000
     3 C      -3.877490     1.858297     1.640071 C          1 UNL1 0.000
     4 C      -5.280114     1.942987     1.675857 C          1 UNL1 0.000
     5 C      -5.920279     3.197638     1.738806 C          1 UNL1 0.000
     6 C      -5.190518     4.381727     1.764178 C          1 UNL1 0.000
     7 C      -3.808043     4.324748     1.719567 C          1 UNL1 0.000
     8 C      -3.164983     3.084403     1.655683 C          1 UNL1 0.000
     9 C      -3.086524    -1.895108     1.627225 C          1 UNL1 0.000
    10 C      -3.688952    -3.156145     1.674395 C          1 UNL1 0.000
    11 C      -5.068709    -3.257784     1.715138 C          1 UNL1 0.000
    12 C      -5.835928    -2.097220     1.703297 C          1 UNL1 0.000
    13 C      -5.236568    -0.821687     1.656927 C          1 UNL1 0.000
    14 S      -6.364211     0.543239     1.642614 S          1 UNL1 0.000
    15 C      -1.728617     0.614365     1.604772 C          1 UNL1 0.000
    16 C      -1.035420     0.626930     2.821475 C          1 UNL1 0.000
    17 C       0.352104     0.616057     2.816487 C          1 UNL1 0.000
    18 C       1.068175     0.589994     1.623362 C          1 UNL1 0.000
    19 C       0.395851     0.580907     0.393325 C          1 UNL1 0.000
    20 C      -1.008815     0.598358     0.395717 C          1 UNL1 0.000
    21 F       1.014879     0.623536     3.980026 F          1 UNL1 0.000
    22 H      -7.007121     3.257090     1.770061 H          1 UNL1 0.000
    23 H      -5.701891     5.338938     1.816520 H          1 UNL1 0.000
    24 H      -3.221998     5.240092     1.735968 H          1 UNL1 0.000
    25 H      -2.078856     3.103222     1.621608 H          1 UNL1 0.000
    26 H      -2.000271    -1.880098     1.596585 H          1 UNL1 0.000
    27 H      -3.073267    -4.051948     1.680707 H          1 UNL1 0.000
    28 H      -5.548871    -4.231595     1.754498 H          1 UNL1 0.000
    29 H      -6.920265    -2.192137     1.732360 H          1 UNL1 0.000
    30 H      -1.572137     0.637519     3.764792 H          1 UNL1 0.000
    31 H       2.154274     0.577896     1.663152 H          1 UNL1 0.000
    32 H      -1.555139     0.582509    -0.546163 H          1 UNL1 0.000
    33 C       1.147195     0.537187    -0.863949 C          1 UNL1 0.000
    34 C       1.302900     1.689819    -1.650603 C          1 UNL1 0.000
    35 C       2.030008     1.646767    -2.843350 C          1 UNL1 0.000
    36 C       2.613943     0.450320    -3.250148 C          1 UNL1 0.000
    37 C       2.449835    -0.710168    -2.500705 C          1 UNL1 0.000
    38 C       1.727525    -0.663305    -1.306174 C          1 UNL1 0.000
    39 O       3.292169     0.385039    -4.435999 O          1 UNL1 0.000
    40 C       4.646104     0.798258    -4.249917 C          1 UNL1 0.000
    41 H       0.856104     2.630759    -1.336263 H          1 UNL1 0.000
    42 H       2.132829     2.540175    -3.451961 H          1 UNL1 0.000
    43 H       2.879281    -1.646705    -2.843858 H          1 UNL1 0.000
    44 H       1.608454    -1.574840    -0.724109 H          1 UNL1 0.000
    45 H       5.164940     0.685537    -5.206694 H          1 UNL1 0.000
    46 H       5.155622     0.167995    -3.512321 H          1 UNL1 0.000
    47 H       4.702463     1.852024    -3.956182 H          1 UNL1 0.000
@<TRIPOS>BOND
     1      1      2   1
     2      1      3   1
     3      3      4   2
     4      4      5   1
     5      5      6   2
     6      6      7   1
     7      7      8   2
     8      8      3   1
     9      2      9   2
    10      9     10   1
    11     10     11   2
    12     11     12   1
    13     12     13   2
    14     13      2   1
    15      4     14   1
    16     14     13   1
    17     15     16   2
    18     16     17   1
    19     17     18   2
    20     18     19   1
    21     19     20   2
    22     20     15   1
    23     17     21   1
    24      1     15   1
    25      5     22   1
    26      6     23   1
    27      7     24   1
    28      8     25   1
    29      9     26   1
    30     10     27   1
    31     11     28   1
    32     12     29   1
    33     16     30   1
    34     18     31   1
    35     20     32   1
    36     33     34   2
    37     34     35   1
    38     35     36   2
    39     36     37   1
    40     37     38   2
    41     38     33   1
    42     39     40   1
    43     36     39   1
    44     34     41   1
    45     35     42   1
    46     37     43   1
    47     38     44   1
    48     40     45   1
    49     40     46   1
    50     40     47   1
    51     19     33   1
