# Produced with molli package
@<TRIPOS>MOLECULE
H_10_S
48 52 0 0 0
SMALL
USER_CHARGES

@<TRIPOS>ATOM
     1 N      -3.202326     0.499972     1.728835 N          1 UNL1 0.000
     2 C      -3.874561    -0.785187     1.736119 C          1 UNL1 0.000
     3 C      -3.909314     1.764899     1.776448 C          1 UNL1 0.000
     4 C      -5.311533     1.852445     1.815073 C          1 UNL1 0.000
     5 C      -5.948764     3.108796     1.873812 C          1 UNL1 0.000
     6 C      -5.216475     4.291561     1.891845 C          1 UNL1 0.000
     7 C      -3.834215     4.231582     1.847444 C          1 UNL1 0.000
     8 C      -3.194023     2.989612     1.789634 C          1 UNL1 0.000
     9 C      -3.125723    -1.989911     1.715857 C          1 UNL1 0.000
    10 C      -3.731042    -3.250411     1.729696 C          1 UNL1 0.000
    11 C      -5.111226    -3.349893     1.761358 C          1 UNL1 0.000
    12 C      -5.875889    -2.187682     1.778208 C          1 UNL1 0.000
    13 C      -5.273703    -0.912724     1.766239 C          1 UNL1 0.000
    14 S      -6.398327     0.454592     1.791861 S          1 UNL1 0.000
    15 C      -1.763535     0.518411     1.720264 C          1 UNL1 0.000
    16 C      -1.053122     0.508878     2.926986 C          1 UNL1 0.000
    17 C       0.333928     0.509428     2.900882 C          1 UNL1 0.000
    18 C       1.032533     0.517418     1.697250 C          1 UNL1 0.000
    19 C       0.342481     0.531161     0.476562 C          1 UNL1 0.000
    20 C      -1.061532     0.534562     0.500677 C          1 UNL1 0.000
    21 F       1.014580     0.499106     4.054384 F          1 UNL1 0.000
    22 H      -7.035398     3.170927     1.906795 H          1 UNL1 0.000
    23 H      -5.725675     5.250224     1.939072 H          1 UNL1 0.000
    24 H      -3.246159     5.145774     1.858917 H          1 UNL1 0.000
    25 H      -2.107842     3.006628     1.756999 H          1 UNL1 0.000
    26 H      -2.039368    -1.976200     1.691028 H          1 UNL1 0.000
    27 H      -3.117645    -4.147698     1.716895 H          1 UNL1 0.000
    28 H      -5.593893    -4.323233     1.773195 H          1 UNL1 0.000
    29 H      -6.960536    -2.280862     1.802402 H          1 UNL1 0.000
    30 H      -1.575937     0.497932     3.878029 H          1 UNL1 0.000
    31 H       2.119154     0.520222     1.722172 H          1 UNL1 0.000
    32 H      -1.623258     0.539481    -0.432350 H          1 UNL1 0.000
    33 C       1.075933     0.538860    -0.791573 C          1 UNL1 0.000
    34 C       1.168695     1.704095    -1.561480 C          1 UNL1 0.000
    35 C       1.895985     1.713335    -2.756855 C          1 UNL1 0.000
    36 C       2.542859     0.556054    -3.216124 C          1 UNL1 0.000
    37 C       2.439631    -0.614243    -2.458362 C          1 UNL1 0.000
    38 C       1.716893    -0.618169    -1.256864 C          1 UNL1 0.000
    39 C       3.311858     0.652292    -4.497358 C          1 UNL1 0.000
    40 C       4.047717    -0.537103    -5.061119 C          1 UNL1 0.000
    41 O       3.335549     1.724743    -5.102726 O          1 UNL1 0.000
    42 H       0.685289     2.621485    -1.230346 H          1 UNL1 0.000
    43 H       1.957126     2.639174    -3.327666 H          1 UNL1 0.000
    44 H       2.905050    -1.545321    -2.760975 H          1 UNL1 0.000
    45 H       1.654627    -1.540931    -0.681625 H          1 UNL1 0.000
    46 H       3.571773    -0.832333    -6.000448 H          1 UNL1 0.000
    47 H       4.075382    -1.401660    -4.401938 H          1 UNL1 0.000
    48 H       5.084406    -0.244008    -5.253682 H          1 UNL1 0.000
@<TRIPOS>BOND
     1      1      2   1
     2      1      3   1
     3      3      4   2
     4      4      5   1
     5      5      6   2
     6      6      7   1
     7      7      8   2
     8      8      3   1
     9      2      9   2
    10      9     10   1
    11     10     11   2
    12     11     12   1
    13     12     13   2
    14     13      2   1
    15      4     14   1
    16     14     13   1
    17     15     16   2
    18     16     17   1
    19     17     18   2
    20     18     19   1
    21     19     20   2
    22     20     15   1
    23     17     21   1
    24      1     15   1
    25      5     22   1
    26      6     23   1
    27      7     24   1
    28      8     25   1
    29      9     26   1
    30     10     27   1
    31     11     28   1
    32     12     29   1
    33     16     30   1
    34     18     31   1
    35     20     32   1
    36     33     34   2
    37     34     35   1
    38     35     36   2
    39     36     37   1
    40     37     38   2
    41     38     33   1
    42     36     39   1
    43     39     40   1
    44     39     41   2
    45     34     42   1
    46     35     43   1
    47     37     44   1
    48     38     45   1
    49     40     46   1
    50     40     47   1
    51     40     48   1
    52     19     33   1
