# Produced with molli package
@<TRIPOS>MOLECULE
H_10_N
40 44 0 0 0
SMALL
USER_CHARGES

@<TRIPOS>ATOM
     1 N      -3.247053     0.538276     1.790834 N          1 UNL1 0.000
     2 C      -3.952186    -0.728338     1.775396 C          1 UNL1 0.000
     3 C      -3.921599     1.822160     1.783871 C          1 UNL1 0.000
     4 C      -5.320507     1.946978     1.735516 C          1 UNL1 0.000
     5 C      -5.925809     3.220509     1.739333 C          1 UNL1 0.000
     6 C      -5.164481     4.383979     1.789064 C          1 UNL1 0.000
     7 C      -3.784396     4.287256     1.831479 C          1 UNL1 0.000
     8 C      -3.175903     3.028210     1.826934 C          1 UNL1 0.000
     9 C      -3.235902    -1.951812     1.820289 C          1 UNL1 0.000
    10 C      -3.874642    -3.195729     1.810865 C          1 UNL1 0.000
    11 C      -5.256334    -3.258884     1.755449 C          1 UNL1 0.000
    12 C      -5.989317    -2.077215     1.710154 C          1 UNL1 0.000
    13 C      -5.353573    -0.818824     1.720441 C          1 UNL1 0.000
    14 S      -6.440535     0.577691     1.657775 S          1 UNL1 0.000
    15 C      -1.808819     0.521629     1.820406 C          1 UNL1 0.000
    16 C      -1.126325     0.554294     3.043713 C          1 UNL1 0.000
    17 C       0.263008     0.557556     3.052680 C          1 UNL1 0.000
    18 C       0.992725     0.527927     1.868575 C          1 UNL1 0.000
    19 C       0.321127     0.483871     0.643931 C          1 UNL1 0.000
    20 C      -1.079116     0.482230     0.619703 C          1 UNL1 0.000
    21 F       0.912825     0.592275     4.223141 F          1 UNL1 0.000
    22 H      -7.010248     3.311648     1.702479 H          1 UNL1 0.000
    23 H      -5.649410     5.356258     1.792573 H          1 UNL1 0.000
    24 H      -3.173372     5.185556     1.868643 H          1 UNL1 0.000
    25 H      -2.089697     3.017327     1.859676 H          1 UNL1 0.000
    26 H      -2.150251    -1.966413     1.867789 H          1 UNL1 0.000
    27 H      -3.286033    -4.108850     1.848560 H          1 UNL1 0.000
    28 H      -5.764611    -4.219153     1.748282 H          1 UNL1 0.000
    29 H      -7.075439    -2.141822     1.666984 H          1 UNL1 0.000
    30 H      -1.672109     0.582132     3.981657 H          1 UNL1 0.000
    31 H       2.077889     0.529829     1.915608 H          1 UNL1 0.000
    32 H      -1.614348     0.463273    -0.327742 H          1 UNL1 0.000
    33 C       1.075346     0.456466    -0.596374 C          1 UNL1 0.000
    34 C       1.071702    -0.653691    -1.417269 C          1 UNL1 0.000
    35 S       2.044808    -0.435287    -2.809245 S          1 UNL1 0.000
    36 C       2.478127     1.146911    -2.325377 C          1 UNL1 0.000
    37 C       1.899584     1.497763    -1.125091 C          1 UNL1 0.000
    38 H       0.551728    -1.591233    -1.271435 H          1 UNL1 0.000
    39 H       3.135905     1.742765    -2.943207 H          1 UNL1 0.000
    40 H       2.051970     2.461772    -0.654783 H          1 UNL1 0.000
@<TRIPOS>BOND
     1      1      2   1
     2      1      3   1
     3      3      4   2
     4      4      5   1
     5      5      6   2
     6      6      7   1
     7      7      8   2
     8      8      3   1
     9      2      9   2
    10      9     10   1
    11     10     11   2
    12     11     12   1
    13     12     13   2
    14     13      2   1
    15      4     14   1
    16     14     13   1
    17     15     16   2
    18     16     17   1
    19     17     18   2
    20     18     19   1
    21     19     20   2
    22     20     15   1
    23     17     21   1
    24      1     15   1
    25      5     22   1
    26      6     23   1
    27      7     24   1
    28      8     25   1
    29      9     26   1
    30     10     27   1
    31     11     28   1
    32     12     29   1
    33     16     30   1
    34     18     31   1
    35     20     32   1
    36     33     34   2
    37     34     35   1
    38     35     36   1
    39     36     37   2
    40     37     33   1
    41     34     38   1
    42     36     39   1
    43     37     40   1
    44     19     33   1
