# Produced with molli package
@<TRIPOS>MOLECULE
H_10_M
44 48 0 0 0
SMALL
USER_CHARGES

@<TRIPOS>ATOM
     1 N      -3.262094     0.525769     1.761608 N          1 UNL1 0.000
     2 C      -3.954180    -0.748765     1.749716 C          1 UNL1 0.000
     3 C      -3.950795     1.801545     1.787492 C          1 UNL1 0.000
     4 C      -5.351923     1.910835     1.773322 C          1 UNL1 0.000
     5 C      -5.971517     3.176668     1.814250 C          1 UNL1 0.000
     6 C      -5.222379     4.347834     1.865309 C          1 UNL1 0.000
     7 C      -3.840528     4.266611     1.871658 C          1 UNL1 0.000
     8 C      -3.217807     3.015067     1.832033 C          1 UNL1 0.000
     9 C      -3.224437    -1.965036     1.768608 C          1 UNL1 0.000
    10 C      -3.850005    -3.215764     1.762325 C          1 UNL1 0.000
    11 C      -5.231719    -3.293477     1.734242 C          1 UNL1 0.000
    12 C      -5.977830    -2.119413     1.713911 C          1 UNL1 0.000
    13 C      -5.355340    -0.854272     1.722781 C          1 UNL1 0.000
    14 S      -6.458299     0.530553     1.696126 S          1 UNL1 0.000
    15 C      -1.823313     0.522772     1.779851 C          1 UNL1 0.000
    16 C      -1.133740     0.523647     2.998396 C          1 UNL1 0.000
    17 C       0.253682     0.510462     2.995727 C          1 UNL1 0.000
    18 C       0.973129     0.495542     1.804199 C          1 UNL1 0.000
    19 C       0.304359     0.500380     0.571794 C          1 UNL1 0.000
    20 C      -1.100068     0.514607     0.572740 C          1 UNL1 0.000
    21 F       0.914582     0.514136     4.160680 F          1 UNL1 0.000
    22 H      -7.057573     3.255463     1.806547 H          1 UNL1 0.000
    23 H      -5.718373     5.313996     1.898416 H          1 UNL1 0.000
    24 H      -3.239492     5.171572     1.909601 H          1 UNL1 0.000
    25 H      -2.131101     3.015454     1.840358 H          1 UNL1 0.000
    26 H      -2.137960    -1.968641     1.792332 H          1 UNL1 0.000
    27 H      -3.251149    -4.122779     1.780612 H          1 UNL1 0.000
    28 H      -5.729857    -4.259080     1.728928 H          1 UNL1 0.000
    29 H      -7.063876    -2.195443     1.691947 H          1 UNL1 0.000
    30 H      -1.672544     0.533721     3.940491 H          1 UNL1 0.000
    31 H       2.059145     0.491137     1.848557 H          1 UNL1 0.000
    32 H      -1.646524     0.511508    -0.369353 H          1 UNL1 0.000
    33 C       1.057439     0.498951    -0.685695 C          1 UNL1 0.000
    34 C       1.114493     1.649834    -1.486843 C          1 UNL1 0.000
    35 C       1.848648     1.658854    -2.677322 C          1 UNL1 0.000
    36 C       2.533162     0.511623    -3.087656 C          1 UNL1 0.000
    37 C       2.478937    -0.643190    -2.302249 C          1 UNL1 0.000
    38 C       1.748050    -0.647083    -1.109429 C          1 UNL1 0.000
    39 C       3.289185     0.520693    -4.305684 C          1 UNL1 0.000
    40 N       3.902957     0.529065    -5.290810 N          1 UNL1 0.000
    41 H       0.593040     2.554977    -1.179344 H          1 UNL1 0.000
    42 H       1.883090     2.567343    -3.276000 H          1 UNL1 0.000
    43 H       3.003915    -1.545948    -2.609629 H          1 UNL1 0.000
    44 H       1.716099    -1.556334    -0.511138 H          1 UNL1 0.000
@<TRIPOS>BOND
     1      1      2   1
     2      1      3   1
     3      3      4   2
     4      4      5   1
     5      5      6   2
     6      6      7   1
     7      7      8   2
     8      8      3   1
     9      2      9   2
    10      9     10   1
    11     10     11   2
    12     11     12   1
    13     12     13   2
    14     13      2   1
    15      4     14   1
    16     14     13   1
    17     15     16   2
    18     16     17   1
    19     17     18   2
    20     18     19   1
    21     19     20   2
    22     20     15   1
    23     17     21   1
    24      1     15   1
    25      5     22   1
    26      6     23   1
    27      7     24   1
    28      8     25   1
    29      9     26   1
    30     10     27   1
    31     11     28   1
    32     12     29   1
    33     16     30   1
    34     18     31   1
    35     20     32   1
    36     33     34   2
    37     34     35   1
    38     35     36   2
    39     36     37   1
    40     37     38   2
    41     38     33   1
    42     39     40   3
    43     36     39   1
    44     34     41   1
    45     35     42   1
    46     37     43   1
    47     38     44   1
    48     19     33   1
