# Produced with molli package
@<TRIPOS>MOLECULE
H_10_R
44 48 0 0 0
SMALL
USER_CHARGES

@<TRIPOS>ATOM
     1 N      -3.197269     0.593080     1.643607 N          1 UNL1 0.000
     2 C      -3.877323    -0.687898     1.657607 C          1 UNL1 0.000
     3 C      -3.896937     1.862700     1.668575 C          1 UNL1 0.000
     4 C      -5.298320     1.959042     1.716138 C          1 UNL1 0.000
     5 C      -5.928092     3.219951     1.754155 C          1 UNL1 0.000
     6 C      -5.189085     4.398592     1.740962 C          1 UNL1 0.000
     7 C      -3.807683     4.329679     1.684434 C          1 UNL1 0.000
     8 C      -3.174840     3.083199     1.647205 C          1 UNL1 0.000
     9 C      -3.135994    -1.897356     1.638537 C          1 UNL1 0.000
    10 C      -3.748984    -3.154160     1.653739 C          1 UNL1 0.000
    11 C      -5.129673    -3.245053     1.687991 C          1 UNL1 0.000
    12 C      -5.887012    -2.078095     1.707537 C          1 UNL1 0.000
    13 C      -5.277067    -0.806813     1.693406 C          1 UNL1 0.000
    14 S      -6.393055     0.567206     1.731466 S          1 UNL1 0.000
    15 C      -1.758579     0.603466     1.652258 C          1 UNL1 0.000
    16 C      -1.063008     0.625416     2.867315 C          1 UNL1 0.000
    17 C       0.324424     0.619467     2.858836 C          1 UNL1 0.000
    18 C       1.038645     0.583213     1.665127 C          1 UNL1 0.000
    19 C       0.363438     0.560205     0.436142 C          1 UNL1 0.000
    20 C      -1.041119     0.580011     0.442501 C          1 UNL1 0.000
    21 F       0.990685     0.643355     4.020445 F          1 UNL1 0.000
    22 H      -7.013998     3.289055     1.794867 H          1 UNL1 0.000
    23 H      -5.692213     5.361063     1.771901 H          1 UNL1 0.000
    24 H      -3.213859     5.240106     1.668611 H          1 UNL1 0.000
    25 H      -2.088841     3.093807     1.598648 H          1 UNL1 0.000
    26 H      -2.049817    -1.890289     1.613680 H          1 UNL1 0.000
    27 H      -3.141557    -4.055479     1.640530 H          1 UNL1 0.000
    28 H      -5.618499    -4.215325     1.701441 H          1 UNL1 0.000
    29 H      -6.972128    -2.164535     1.736475 H          1 UNL1 0.000
    30 H      -1.597742     0.648476     3.811552 H          1 UNL1 0.000
    31 H       2.124697     0.587909     1.704217 H          1 UNL1 0.000
    32 H      -1.588528     0.575193    -0.499108 H          1 UNL1 0.000
    33 C       1.105680     0.516833    -0.822701 C          1 UNL1 0.000
    34 N       1.156458     1.683109    -1.514907 N          1 UNL1 0.000
    35 C       1.856859     1.694086    -2.676697 C          1 UNL1 0.000
    36 C       2.495833     0.573684    -3.179832 C          1 UNL1 0.000
    37 C       2.431436    -0.626197    -2.472798 C          1 UNL1 0.000
    38 C       1.728264    -0.650583    -1.268687 C          1 UNL1 0.000
    39 N       3.221967     0.662386    -4.431817 N          1 UNL1 0.000
    40 O       3.340034    -0.376140    -5.096707 O          1 UNL1 0.000
    41 O       3.679975     1.767314    -4.750950 O          1 UNL1 0.000
    42 H       1.873749     2.653620    -3.187765 H          1 UNL1 0.000
    43 H       2.919126    -1.527288    -2.836614 H          1 UNL1 0.000
    44 H       1.663452    -1.568098    -0.690622 H          1 UNL1 0.000
@<TRIPOS>BOND
     1      1      2   1
     2      1      3   1
     3      3      4   2
     4      4      5   1
     5      5      6   2
     6      6      7   1
     7      7      8   2
     8      8      3   1
     9      2      9   2
    10      9     10   1
    11     10     11   2
    12     11     12   1
    13     12     13   2
    14     13      2   1
    15      4     14   1
    16     14     13   1
    17     15     16   2
    18     16     17   1
    19     17     18   2
    20     18     19   1
    21     19     20   2
    22     20     15   1
    23     17     21   1
    24      1     15   1
    25      5     22   1
    26      6     23   1
    27      7     24   1
    28      8     25   1
    29      9     26   1
    30     10     27   1
    31     11     28   1
    32     12     29   1
    33     16     30   1
    34     18     31   1
    35     20     32   1
    36     33     34   2
    37     34     35   1
    38     35     36   2
    39     36     37   1
    40     37     38   2
    41     38     33   1
    42     39     40   2
    43     39     41   1
    44     36     39   1
    45     35     42   1
    46     37     43   1
    47     38     44   1
    48     19     33   1
