# Produced with molli package
@<TRIPOS>MOLECULE
H_10_Q
41 45 0 0 0
SMALL
USER_CHARGES

@<TRIPOS>ATOM
     1 N      -3.245252     0.520905     1.781537 N          1 UNL1 0.000
     2 C      -3.928465    -0.758070     1.812491 C          1 UNL1 0.000
     3 C      -3.942111     1.791704     1.763127 C          1 UNL1 0.000
     4 C      -5.342508     1.892669     1.828448 C          1 UNL1 0.000
     5 C      -5.970468     3.154862     1.811684 C          1 UNL1 0.000
     6 C      -5.230491     4.330037     1.728171 C          1 UNL1 0.000
     7 C      -3.849795     4.256201     1.660220 C          1 UNL1 0.000
     8 C      -3.218670     3.008437     1.677901 C          1 UNL1 0.000
     9 C      -3.191282    -1.969593     1.773641 C          1 UNL1 0.000
    10 C      -3.807333    -3.224592     1.800759 C          1 UNL1 0.000
    11 C      -5.187068    -3.311470     1.867840 C          1 UNL1 0.000
    12 C      -5.940398    -2.142302     1.907077 C          1 UNL1 0.000
    13 C      -5.327317    -0.872770     1.879456 C          1 UNL1 0.000
    14 S      -6.437030     0.505359     1.947518 S          1 UNL1 0.000
    15 C      -1.806882     0.527019     1.800654 C          1 UNL1 0.000
    16 C      -1.120766     0.518506     3.020504 C          1 UNL1 0.000
    17 C       0.266459     0.497019     3.021647 C          1 UNL1 0.000
    18 C       0.989606     0.475035     1.832203 C          1 UNL1 0.000
    19 C       0.324842     0.486375     0.596671 C          1 UNL1 0.000
    20 C      -1.080054     0.522936     0.596139 C          1 UNL1 0.000
    21 F       0.924468     0.491471     4.188070 F          1 UNL1 0.000
    22 H      -7.055527     3.227640     1.865461 H          1 UNL1 0.000
    23 H      -5.732231     5.293612     1.716212 H          1 UNL1 0.000
    24 H      -3.255128     5.163631     1.592244 H          1 UNL1 0.000
    25 H      -2.133212     3.014522     1.617960 H          1 UNL1 0.000
    26 H      -2.106172    -1.965761     1.718232 H          1 UNL1 0.000
    27 H      -3.202778    -4.127438     1.769055 H          1 UNL1 0.000
    28 H      -5.678015    -4.280473     1.890229 H          1 UNL1 0.000
    29 H      -7.024715    -2.225692     1.961325 H          1 UNL1 0.000
    30 H      -1.662210     0.527372     3.961152 H          1 UNL1 0.000
    31 H       2.075502     0.468665     1.883590 H          1 UNL1 0.000
    32 H      -1.620808     0.541527    -0.349637 H          1 UNL1 0.000
    33 C       1.070289     0.464194    -0.661110 C          1 UNL1 0.000
    34 N       0.937371     1.554778    -1.457586 N          1 UNL1 0.000
    35 C       1.646681     1.533073    -2.610475 C          1 UNL1 0.000
    36 C       2.450152     0.464907    -2.971527 C          1 UNL1 0.000
    37 N       2.584859    -0.632597    -2.195390 N          1 UNL1 0.000
    38 C       1.880167    -0.606339    -1.037048 C          1 UNL1 0.000
    39 H       1.552764     2.409223    -3.241943 H          1 UNL1 0.000
    40 H       3.010066     0.464094    -3.899791 H          1 UNL1 0.000
    41 H       1.979589    -1.489093    -0.414089 H          1 UNL1 0.000
@<TRIPOS>BOND
     1      1      2   1
     2      1      3   1
     3      3      4   2
     4      4      5   1
     5      5      6   2
     6      6      7   1
     7      7      8   2
     8      8      3   1
     9      2      9   2
    10      9     10   1
    11     10     11   2
    12     11     12   1
    13     12     13   2
    14     13      2   1
    15      4     14   1
    16     14     13   1
    17     15     16   2
    18     16     17   1
    19     17     18   2
    20     18     19   1
    21     19     20   2
    22     20     15   1
    23     17     21   1
    24      1     15   1
    25      5     22   1
    26      6     23   1
    27      7     24   1
    28      8     25   1
    29      9     26   1
    30     10     27   1
    31     11     28   1
    32     12     29   1
    33     16     30   1
    34     18     31   1
    35     20     32   1
    36     33     34   2
    37     34     35   1
    38     35     36   2
    39     36     37   1
    40     37     38   2
    41     38     33   1
    42     35     39   1
    43     36     40   1
    44     38     41   1
    45     19     33   1
