# Produced with molli package
@<TRIPOS>MOLECULE
H_10_T
46 50 0 0 0
SMALL
USER_CHARGES

@<TRIPOS>ATOM
     1 N      -3.180210     0.518917     1.710554 N          1 UNL1 0.000
     2 C      -3.855072    -0.764496     1.713554 C          1 UNL1 0.000
     3 C      -3.884654     1.785727     1.745045 C          1 UNL1 0.000
     4 C      -5.286663     1.876938     1.773706 C          1 UNL1 0.000
     5 C      -5.920844     3.135474     1.818410 C          1 UNL1 0.000
     6 C      -5.185647     4.316610     1.832804 C          1 UNL1 0.000
     7 C      -3.803370     4.252911     1.798293 C          1 UNL1 0.000
     8 C      -3.166401     3.008935     1.753499 C          1 UNL1 0.000
     9 C      -3.108955    -1.970775     1.698167 C          1 UNL1 0.000
    10 C      -3.717577    -3.229825     1.708132 C          1 UNL1 0.000
    11 C      -5.098239    -3.326126     1.732069 C          1 UNL1 0.000
    12 C      -5.860242    -2.162144     1.744501 C          1 UNL1 0.000
    13 C      -5.254807    -0.888696     1.735482 C          1 UNL1 0.000
    14 S      -6.376523     0.481425     1.755167 S          1 UNL1 0.000
    15 C      -1.741434     0.536243     1.711280 C          1 UNL1 0.000
    16 C      -1.038098     0.555061     2.921911 C          1 UNL1 0.000
    17 C       0.349534     0.572043     2.904211 C          1 UNL1 0.000
    18 C       1.055513     0.568170     1.704812 C          1 UNL1 0.000
    19 C       0.371786     0.550727     0.481352 C          1 UNL1 0.000
    20 C      -1.032108     0.536250     0.496426 C          1 UNL1 0.000
    21 F       1.022337     0.594035     4.062088 F          1 UNL1 0.000
    22 H      -7.007473     3.200556     1.843218 H          1 UNL1 0.000
    23 H      -5.692554     5.276870     1.869511 H          1 UNL1 0.000
    24 H      -3.212533     5.165267     1.807108 H          1 UNL1 0.000
    25 H      -2.079960     3.022915     1.726484 H          1 UNL1 0.000
    26 H      -2.022310    -1.959214     1.679410 H          1 UNL1 0.000
    27 H      -3.106097    -4.128485     1.698030 H          1 UNL1 0.000
    28 H      -5.583146    -4.298359     1.741128 H          1 UNL1 0.000
    29 H      -6.945192    -2.252671     1.762738 H          1 UNL1 0.000
    30 H      -1.566418     0.557813     3.869901 H          1 UNL1 0.000
    31 H       2.141901     0.584692     1.733309 H          1 UNL1 0.000
    32 H      -1.585896     0.519841    -0.441091 H          1 UNL1 0.000
    33 C       1.108704     0.548709    -0.783922 C          1 UNL1 0.000
    34 C       1.674243    -0.633377    -1.281871 C          1 UNL1 0.000
    35 C       2.385643    -0.635432    -2.485523 C          1 UNL1 0.000
    36 C       2.550776     0.547671    -3.212488 C          1 UNL1 0.000
    37 C       1.984978     1.729952    -2.722654 C          1 UNL1 0.000
    38 C       1.270600     1.729638    -1.521102 C          1 UNL1 0.000
    39 C       3.309263     0.559972    -4.506489 C          1 UNL1 0.000
    40 H       1.559763    -1.566254    -0.733651 H          1 UNL1 0.000
    41 H       2.809476    -1.569145    -2.848149 H          1 UNL1 0.000
    42 H       2.098520     2.660916    -3.273774 H          1 UNL1 0.000
    43 H       0.844063     2.662603    -1.158545 H          1 UNL1 0.000
    44 H       4.122522     1.291602    -4.461133 H          1 UNL1 0.000
    45 H       2.639164     0.816747    -5.333054 H          1 UNL1 0.000
    46 H       3.753017    -0.417745    -4.721297 H          1 UNL1 0.000
@<TRIPOS>BOND
     1      1      2   1
     2      1      3   1
     3      3      4   2
     4      4      5   1
     5      5      6   2
     6      6      7   1
     7      7      8   2
     8      8      3   1
     9      2      9   2
    10      9     10   1
    11     10     11   2
    12     11     12   1
    13     12     13   2
    14     13      2   1
    15      4     14   1
    16     14     13   1
    17     15     16   2
    18     16     17   1
    19     17     18   2
    20     18     19   1
    21     19     20   2
    22     20     15   1
    23     17     21   1
    24      1     15   1
    25      5     22   1
    26      6     23   1
    27      7     24   1
    28      8     25   1
    29      9     26   1
    30     10     27   1
    31     11     28   1
    32     12     29   1
    33     16     30   1
    34     18     31   1
    35     20     32   1
    36     33     34   2
    37     34     35   1
    38     35     36   2
    39     36     37   1
    40     37     38   2
    41     38     33   1
    42     36     39   1
    43     34     40   1
    44     35     41   1
    45     37     42   1
    46     38     43   1
    47     39     44   1
    48     39     45   1
    49     39     46   1
    50     19     33   1
