# Produced with molli package
@<TRIPOS>MOLECULE
H_10_O
42 46 0 0 0
SMALL
USER_CHARGES

@<TRIPOS>ATOM
     1 N      -3.130170     0.517272     1.717743 N          1 UNL1 0.000
     2 C      -3.829667    -0.752937     1.740242 C          1 UNL1 0.000
     3 C      -3.810060     1.797404     1.708091 C          1 UNL1 0.000
     4 C      -5.210492     1.915660     1.720905 C          1 UNL1 0.000
     5 C      -5.821385     3.186425     1.716888 C          1 UNL1 0.000
     6 C      -5.064053     4.353385     1.700071 C          1 UNL1 0.000
     7 C      -3.682838     4.262634     1.685192 C          1 UNL1 0.000
     8 C      -3.068757     3.006303     1.688652 C          1 UNL1 0.000
     9 C      -3.106593    -1.973594     1.747345 C          1 UNL1 0.000
    10 C      -3.738451    -3.220755     1.773612 C          1 UNL1 0.000
    11 C      -5.120652    -3.290515     1.790443 C          1 UNL1 0.000
    12 C      -5.860490    -2.112165     1.779921 C          1 UNL1 0.000
    13 C      -5.231330    -0.850362     1.755023 C          1 UNL1 0.000
    14 S      -6.326741     0.540806     1.744144 S          1 UNL1 0.000
    15 C      -1.691582     0.504873     1.717076 C          1 UNL1 0.000
    16 C      -0.985924     0.464599     2.925454 C          1 UNL1 0.000
    17 C       0.401296     0.428662     2.903662 C          1 UNL1 0.000
    18 C       1.104877     0.425222     1.702725 C          1 UNL1 0.000
    19 C       0.419674     0.469246     0.479776 C          1 UNL1 0.000
    20 C      -0.984208     0.517596     0.501707 C          1 UNL1 0.000
    21 F       1.077194     0.390395     4.059412 F          1 UNL1 0.000
    22 H      -6.906714     3.272462     1.727148 H          1 UNL1 0.000
    23 H      -5.552627     5.323719     1.697420 H          1 UNL1 0.000
    24 H      -3.074148     5.163141     1.669596 H          1 UNL1 0.000
    25 H      -1.981623     2.999345     1.673362 H          1 UNL1 0.000
    26 H      -2.020069    -1.982990     1.732452 H          1 UNL1 0.000
    27 H      -3.143919    -4.130674     1.780861 H          1 UNL1 0.000
    28 H      -5.623958    -4.253142     1.810921 H          1 UNL1 0.000
    29 H      -6.947039    -2.181941     1.791671 H          1 UNL1 0.000
    30 H      -1.512097     0.460135     3.874583 H          1 UNL1 0.000
    31 H       2.191046     0.405728     1.731032 H          1 UNL1 0.000
    32 H      -1.536951     0.561473    -0.435928 H          1 UNL1 0.000
    33 C       1.144996     0.466946    -0.791406 C          1 UNL1 0.000
    34 N       1.067105     1.611531    -1.511777 N          1 UNL1 0.000
    35 C       1.733684     1.650727    -2.686509 C          1 UNL1 0.000
    36 C       2.470626     0.592761    -3.191299 C          1 UNL1 0.000
    37 C       2.531854    -0.578255    -2.446492 C          1 UNL1 0.000
    38 C       1.864335    -0.644485    -1.226324 C          1 UNL1 0.000
    39 H       1.657066     2.588484    -3.229499 H          1 UNL1 0.000
    40 H       2.982779     0.679402    -4.143014 H          1 UNL1 0.000
    41 H       3.093031    -1.433574    -2.811749 H          1 UNL1 0.000
    42 H       1.896531    -1.552681    -0.633269 H          1 UNL1 0.000
@<TRIPOS>BOND
     1      1      2   1
     2      1      3   1
     3      3      4   2
     4      4      5   1
     5      5      6   2
     6      6      7   1
     7      7      8   2
     8      8      3   1
     9      2      9   2
    10      9     10   1
    11     10     11   2
    12     11     12   1
    13     12     13   2
    14     13      2   1
    15      4     14   1
    16     14     13   1
    17     15     16   2
    18     16     17   1
    19     17     18   2
    20     18     19   1
    21     19     20   2
    22     20     15   1
    23     17     21   1
    24      1     15   1
    25      5     22   1
    26      6     23   1
    27      7     24   1
    28      8     25   1
    29      9     26   1
    30     10     27   1
    31     11     28   1
    32     12     29   1
    33     16     30   1
    34     18     31   1
    35     20     32   1
    36     33     34   2
    37     34     35   1
    38     35     36   2
    39     36     37   1
    40     37     38   2
    41     38     33   1
    42     35     39   1
    43     36     40   1
    44     37     41   1
    45     38     42   1
    46     19     33   1
