# Produced with molli package
@<TRIPOS>MOLECULE
H_10_K
45 49 0 0 0
SMALL
USER_CHARGES

@<TRIPOS>ATOM
     1 N      -3.120826     0.533058     1.652553 N          1 UNL1 0.000
     2 C      -3.805133    -0.745765     1.648223 C          1 UNL1 0.000
     3 C      -3.816677     1.804127     1.701445 C          1 UNL1 0.000
     4 C      -5.218466     1.905101     1.699037 C          1 UNL1 0.000
     5 C      -5.845035     3.166573     1.760848 C          1 UNL1 0.000
     6 C      -5.102278     4.341271     1.824081 C          1 UNL1 0.000
     7 C      -3.719956     4.268156     1.821228 C          1 UNL1 0.000
     8 C      -3.090331     3.021096     1.758846 C          1 UNL1 0.000
     9 C      -3.067750    -1.957588     1.657589 C          1 UNL1 0.000
    10 C      -3.685691    -3.212046     1.666416 C          1 UNL1 0.000
    11 C      -5.067188    -3.298063     1.662626 C          1 UNL1 0.000
    12 C      -5.820672    -2.128570     1.647311 C          1 UNL1 0.000
    13 C      -5.205836    -0.859703     1.639830 C          1 UNL1 0.000
    14 S      -6.316774     0.518829     1.612468 S          1 UNL1 0.000
    15 C      -1.682101     0.538843     1.651824 C          1 UNL1 0.000
    16 C      -0.976724     0.525222     2.861300 C          1 UNL1 0.000
    17 C       0.410285     0.517510     2.840415 C          1 UNL1 0.000
    18 C       1.113691     0.520082     1.639401 C          1 UNL1 0.000
    19 C       0.429028     0.536856     0.415520 C          1 UNL1 0.000
    20 C      -0.975199     0.549509     0.435114 C          1 UNL1 0.000
    21 F       1.086606     0.505677     3.996356 F          1 UNL1 0.000
    22 H      -6.931542     3.239140     1.760740 H          1 UNL1 0.000
    23 H      -5.603577     5.303957     1.874275 H          1 UNL1 0.000
    24 H      -3.123935     5.175932     1.869728 H          1 UNL1 0.000
    25 H      -2.003628     3.027711     1.761259 H          1 UNL1 0.000
    26 H      -1.981049    -1.954734     1.662668 H          1 UNL1 0.000
    27 H      -3.081154    -4.115411     1.678178 H          1 UNL1 0.000
    28 H      -5.559455    -4.266666     1.670963 H          1 UNL1 0.000
    29 H      -6.906436    -2.211246     1.642059 H          1 UNL1 0.000
    30 H      -1.503328     0.518298     3.810312 H          1 UNL1 0.000
    31 H       2.200227     0.516398     1.670257 H          1 UNL1 0.000
    32 H      -1.534860     0.554861    -0.499197 H          1 UNL1 0.000
    33 C       1.166943     0.536265    -0.851654 C          1 UNL1 0.000
    34 C       1.181441     1.676290    -1.674670 C          1 UNL1 0.000
    35 C       1.898470     1.685640    -2.874463 C          1 UNL1 0.000
    36 C       2.609158     0.542400    -3.251615 C          1 UNL1 0.000
    37 C       2.608270    -0.605758    -2.454510 C          1 UNL1 0.000
    38 C       1.884704    -0.602643    -1.259205 C          1 UNL1 0.000
    39 N       3.370225     0.548915    -4.496624 N          1 UNL1 0.000
    40 O       4.427372    -0.096226    -4.521504 O          1 UNL1 0.000
    41 O       2.908436     1.200499    -5.443771 O          1 UNL1 0.000
    42 H       0.639500     2.572238    -1.374656 H          1 UNL1 0.000
    43 H       1.903351     2.581095    -3.492322 H          1 UNL1 0.000
    44 H       3.155703    -1.497985    -2.750713 H          1 UNL1 0.000
    45 H       1.878217    -1.500402    -0.642380 H          1 UNL1 0.000
@<TRIPOS>BOND
     1      1      2   1
     2      1      3   1
     3      3      4   2
     4      4      5   1
     5      5      6   2
     6      6      7   1
     7      7      8   2
     8      8      3   1
     9      2      9   2
    10      9     10   1
    11     10     11   2
    12     11     12   1
    13     12     13   2
    14     13      2   1
    15      4     14   1
    16     14     13   1
    17     15     16   2
    18     16     17   1
    19     17     18   2
    20     18     19   1
    21     19     20   2
    22     20     15   1
    23     17     21   1
    24      1     15   1
    25      5     22   1
    26      6     23   1
    27      7     24   1
    28      8     25   1
    29      9     26   1
    30     10     27   1
    31     11     28   1
    32     12     29   1
    33     16     30   1
    34     18     31   1
    35     20     32   1
    36     33     34   2
    37     34     35   1
    38     35     36   2
    39     36     37   1
    40     37     38   2
    41     38     33   1
    42     39     40   2
    43     39     41   1
    44     36     39   1
    45     34     42   1
    46     35     43   1
    47     37     44   1
    48     38     45   1
    49     19     33   1
