# Produced with molli package
@<TRIPOS>MOLECULE
H_1_N
40 44 0 0 0
SMALL
USER_CHARGES

@<TRIPOS>ATOM
     1 N      -3.914184     0.584193     0.487289 N          1 UNL1 0.000
     2 C      -4.601322    -0.692667     0.491023 C          1 UNL1 0.000
     3 C      -4.606421     1.857623     0.482000 C          1 UNL1 0.000
     4 C      -6.007889     1.962404     0.476293 C          1 UNL1 0.000
     5 C      -6.630748     3.227314     0.463555 C          1 UNL1 0.000
     6 C      -5.884528     4.401580     0.459585 C          1 UNL1 0.000
     7 C      -4.502405     4.324272     0.469903 C          1 UNL1 0.000
     8 C      -3.876616     3.073737     0.480696 C          1 UNL1 0.000
     9 C      -3.866224    -1.905942     0.493265 C          1 UNL1 0.000
    10 C      -4.486044    -3.159355     0.497416 C          1 UNL1 0.000
    11 C      -5.867690    -3.242812     0.500851 C          1 UNL1 0.000
    12 C      -6.619102    -2.071751     0.498752 C          1 UNL1 0.000
    13 C      -6.002100    -0.803797     0.492830 C          1 UNL1 0.000
    14 S      -7.110946     0.576896     0.485691 S          1 UNL1 0.000
    15 C      -2.475655     0.585312     0.480862 C          1 UNL1 0.000
    16 C      -1.763422     0.587328     1.690424 C          1 UNL1 0.000
    17 C      -0.367294     0.567442     1.683424 C          1 UNL1 0.000
    18 C       0.326493     0.543279     0.468300 C          1 UNL1 0.000
    19 C      -0.377642     0.552220    -0.740855 C          1 UNL1 0.000
    20 C      -1.774020     0.572417    -0.735124 C          1 UNL1 0.000
    21 H      -7.716954     3.302774     0.456585 H          1 UNL1 0.000
    22 H      -6.382789     5.366985     0.449298 H          1 UNL1 0.000
    23 H      -3.902984     5.230995     0.468929 H          1 UNL1 0.000
    24 H      -2.789513     3.075135     0.487962 H          1 UNL1 0.000
    25 H      -2.779122    -1.903262     0.491457 H          1 UNL1 0.000
    26 H      -3.882251    -4.063192     0.498072 H          1 UNL1 0.000
    27 H      -6.361468    -4.210556     0.504674 H          1 UNL1 0.000
    28 H      -7.704945    -2.152296     0.501209 H          1 UNL1 0.000
    29 H      -2.301633     0.598842     2.634978 H          1 UNL1 0.000
    30 H       0.173361     0.565024     2.627062 H          1 UNL1 0.000
    31 H       0.154200     0.537136    -1.689349 H          1 UNL1 0.000
    32 H      -2.321090     0.571937    -1.674717 H          1 UNL1 0.000
    33 C       1.776270     0.506726     0.464293 C          1 UNL1 0.000
    34 C       2.459884    -0.692272     0.485907 C          1 UNL1 0.000
    35 S       4.157469    -0.469217     0.485658 S          1 UNL1 0.000
    36 C       3.988757     1.233173     0.456736 C          1 UNL1 0.000
    37 C       2.667001     1.622779     0.446020 C          1 UNL1 0.000
    38 H       2.049699    -1.693246     0.503356 H          1 UNL1 0.000
    39 H       4.866165     1.865105     0.449642 H          1 UNL1 0.000
    40 H       2.353984     2.659687     0.428482 H          1 UNL1 0.000
@<TRIPOS>BOND
     1      1      2   1
     2      1      3   1
     3      3      4   2
     4      4      5   1
     5      5      6   2
     6      6      7   1
     7      7      8   2
     8      8      3   1
     9      2      9   2
    10      9     10   1
    11     10     11   2
    12     11     12   1
    13     12     13   2
    14     13      2   1
    15      4     14   1
    16     14     13   1
    17     15     16   2
    18     16     17   1
    19     17     18   2
    20     18     19   1
    21     19     20   2
    22     20     15   1
    23      1     15   1
    24      5     21   1
    25      6     22   1
    26      7     23   1
    27      8     24   1
    28      9     25   1
    29     10     26   1
    30     11     27   1
    31     12     28   1
    32     16     29   1
    33     17     30   1
    34     19     31   1
    35     20     32   1
    36     33     34   2
    37     34     35   1
    38     35     36   1
    39     36     37   2
    40     37     33   1
    41     34     38   1
    42     36     39   1
    43     37     40   1
    44     18     33   1
