# Produced with molli package
@<TRIPOS>MOLECULE
H_1_K
45 49 0 0 0
SMALL
USER_CHARGES

@<TRIPOS>ATOM
     1 N      -3.924828     0.430021     0.635972 N          1 UNL1 0.000
     2 C      -4.583872    -0.861386     0.646152 C          1 UNL1 0.000
     3 C      -4.644633     1.688084     0.657171 C          1 UNL1 0.000
     4 C      -6.047940     1.762578     0.652452 C          1 UNL1 0.000
     5 C      -6.697885     3.013656     0.674304 C          1 UNL1 0.000
     6 C      -5.977172     4.203487     0.703371 C          1 UNL1 0.000
     7 C      -4.593726     4.155961     0.710644 C          1 UNL1 0.000
     8 C      -3.941217     2.919404     0.687843 C          1 UNL1 0.000
     9 C      -3.822541    -2.058295     0.655634 C          1 UNL1 0.000
    10 C      -4.414972    -3.324739     0.673593 C          1 UNL1 0.000
    11 C      -5.794492    -3.438078     0.679032 C          1 UNL1 0.000
    12 C      -6.571234    -2.283727     0.663775 C          1 UNL1 0.000
    13 C      -5.981934    -1.002818     0.646779 C          1 UNL1 0.000
    14 S      -7.120194     0.353535     0.616449 S          1 UNL1 0.000
    15 C      -2.487585     0.463721     0.605305 C          1 UNL1 0.000
    16 C      -1.752118     0.428139     1.798454 C          1 UNL1 0.000
    17 C      -0.355526     0.446867     1.764304 C          1 UNL1 0.000
    18 C       0.331382     0.507224     0.541667 C          1 UNL1 0.000
    19 C      -0.411677     0.550281    -0.648404 C          1 UNL1 0.000
    20 C      -1.808336     0.526186    -0.619388 C          1 UNL1 0.000
    21 H      -7.785468     3.065889     0.669112 H          1 UNL1 0.000
    22 H      -6.496196     5.157814     0.720869 H          1 UNL1 0.000
    23 H      -4.014123     5.075164     0.734772 H          1 UNL1 0.000
    24 H      -2.854463     2.944050     0.697637 H          1 UNL1 0.000
    25 H      -2.735845    -2.031833     0.650219 H          1 UNL1 0.000
    26 H      -3.791884    -4.215314     0.683140 H          1 UNL1 0.000
    27 H      -6.267212    -4.416214     0.692903 H          1 UNL1 0.000
    28 H      -7.655082    -2.387853     0.664283 H          1 UNL1 0.000
    29 H      -2.271560     0.382470     2.752527 H          1 UNL1 0.000
    30 H       0.196914     0.417672     2.701451 H          1 UNL1 0.000
    31 H       0.096615     0.593034    -1.609725 H          1 UNL1 0.000
    32 H      -2.371289     0.552197    -1.549230 H          1 UNL1 0.000
    33 C       1.796346     0.518522     0.507938 C          1 UNL1 0.000
    34 C       2.498014     1.708686     0.254632 C          1 UNL1 0.000
    35 C       3.895737     1.723894     0.220895 C          1 UNL1 0.000
    36 C       4.602151     0.535570     0.440731 C          1 UNL1 0.000
    37 C       3.921966    -0.661291     0.694027 C          1 UNL1 0.000
    38 C       2.524345    -0.662863     0.727145 C          1 UNL1 0.000
    39 N       6.068728     0.543979     0.405116 N          1 UNL1 0.000
    40 O       6.660513    -0.467986     0.806200 O          1 UNL1 0.000
    41 O       6.628357     1.563341    -0.024324 O          1 UNL1 0.000
    42 H       1.952115     2.636294     0.087604 H          1 UNL1 0.000
    43 H       4.411763     2.661982     0.026851 H          1 UNL1 0.000
    44 H       4.457892    -1.593077     0.862463 H          1 UNL1 0.000
    45 H       1.998483    -1.597270     0.919043 H          1 UNL1 0.000
@<TRIPOS>BOND
     1      1      2   1
     2      1      3   1
     3      3      4   2
     4      4      5   1
     5      5      6   2
     6      6      7   1
     7      7      8   2
     8      8      3   1
     9      2      9   2
    10      9     10   1
    11     10     11   2
    12     11     12   1
    13     12     13   2
    14     13      2   1
    15      4     14   1
    16     14     13   1
    17     15     16   2
    18     16     17   1
    19     17     18   2
    20     18     19   1
    21     19     20   2
    22     20     15   1
    23      1     15   1
    24      5     21   1
    25      6     22   1
    26      7     23   1
    27      8     24   1
    28      9     25   1
    29     10     26   1
    30     11     27   1
    31     12     28   1
    32     16     29   1
    33     17     30   1
    34     19     31   1
    35     20     32   1
    36     33     34   2
    37     34     35   1
    38     35     36   2
    39     36     37   1
    40     37     38   2
    41     38     33   1
    42     39     40   2
    43     39     41   1
    44     36     39   1
    45     34     42   1
    46     35     43   1
    47     37     44   1
    48     38     45   1
    49     18     33   1
