# Produced with molli package
@<TRIPOS>MOLECULE
H_1_P
47 51 0 0 0
SMALL
USER_CHARGES

@<TRIPOS>ATOM
     1 N      -3.877984     0.472627     0.570018 N          1 UNL1 0.000
     2 C      -4.572501    -0.799453     0.572845 C          1 UNL1 0.000
     3 C      -4.563139     1.750055     0.581668 C          1 UNL1 0.000
     4 C      -5.962931     1.863437     0.526380 C          1 UNL1 0.000
     5 C      -6.579132     3.131421     0.546979 C          1 UNL1 0.000
     6 C      -5.828228     4.300301     0.622761 C          1 UNL1 0.000
     7 C      -4.447375     4.214558     0.674648 C          1 UNL1 0.000
     8 C      -3.828302     2.961077     0.652093 C          1 UNL1 0.000
     9 C      -3.846578    -2.015824     0.641637 C          1 UNL1 0.000
    10 C      -4.474720    -3.264923     0.652012 C          1 UNL1 0.000
    11 C      -5.855894    -3.340448     0.591517 C          1 UNL1 0.000
    12 C      -6.598230    -2.165758     0.521511 C          1 UNL1 0.000
    13 C      -5.972932    -0.902190     0.513078 C          1 UNL1 0.000
    14 S      -7.069229     0.485120     0.410928 S          1 UNL1 0.000
    15 C      -2.439877     0.467561     0.549369 C          1 UNL1 0.000
    16 C      -1.712529     0.492330     1.747733 C          1 UNL1 0.000
    17 C      -0.315654     0.498756     1.721270 C          1 UNL1 0.000
    18 C       0.378969     0.476434     0.501845 C          1 UNL1 0.000
    19 C      -0.355159     0.444487    -0.693416 C          1 UNL1 0.000
    20 C      -1.752479     0.441979    -0.672262 C          1 UNL1 0.000
    21 H      -7.663993     3.213742     0.502164 H          1 UNL1 0.000
    22 H      -6.321244     5.268208     0.638898 H          1 UNL1 0.000
    23 H      -3.843989     5.116683     0.733034 H          1 UNL1 0.000
    24 H      -2.741900     2.955906     0.694927 H          1 UNL1 0.000
    25 H      -2.760524    -2.017941     0.693964 H          1 UNL1 0.000
    26 H      -3.878214    -4.171725     0.708376 H          1 UNL1 0.000
    27 H      -6.355906    -4.304869     0.598338 H          1 UNL1 0.000
    28 H      -7.683501    -2.239902     0.472490 H          1 UNL1 0.000
    29 H      -2.237271     0.509849     2.699556 H          1 UNL1 0.000
    30 H       0.233381     0.520090     2.660675 H          1 UNL1 0.000
    31 H       0.161384     0.429910    -1.650969 H          1 UNL1 0.000
    32 H      -2.309082     0.423694    -1.605879 H          1 UNL1 0.000
    33 C       1.843787     0.495057     0.480019 C          1 UNL1 0.000
    34 C       2.574753    -0.691041     0.307400 C          1 UNL1 0.000
    35 C       3.972149    -0.673181     0.301368 C          1 UNL1 0.000
    36 C       4.645069     0.536739     0.451304 C          1 UNL1 0.000
    37 C       3.940351     1.720677     0.644108 C          1 UNL1 0.000
    38 C       2.543894     1.700226     0.649885 C          1 UNL1 0.000
    39 O       6.011729     0.577383     0.492342 O          1 UNL1 0.000
    40 C       6.552001     0.459514    -0.823598 C          1 UNL1 0.000
    41 H       2.054583    -1.639762     0.192713 H          1 UNL1 0.000
    42 H       4.526435    -1.600612     0.194938 H          1 UNL1 0.000
    43 H       4.473775     2.655326     0.789084 H          1 UNL1 0.000
    44 H       1.999813     2.631434     0.792723 H          1 UNL1 0.000
    45 H       7.636126     0.589325    -0.752475 H          1 UNL1 0.000
    46 H       6.160201     1.241386    -1.484100 H          1 UNL1 0.000
    47 H       6.357342    -0.531725    -1.246437 H          1 UNL1 0.000
@<TRIPOS>BOND
     1      1      2   1
     2      1      3   1
     3      3      4   2
     4      4      5   1
     5      5      6   2
     6      6      7   1
     7      7      8   2
     8      8      3   1
     9      2      9   2
    10      9     10   1
    11     10     11   2
    12     11     12   1
    13     12     13   2
    14     13      2   1
    15      4     14   1
    16     14     13   1
    17     15     16   2
    18     16     17   1
    19     17     18   2
    20     18     19   1
    21     19     20   2
    22     20     15   1
    23      1     15   1
    24      5     21   1
    25      6     22   1
    26      7     23   1
    27      8     24   1
    28      9     25   1
    29     10     26   1
    30     11     27   1
    31     12     28   1
    32     16     29   1
    33     17     30   1
    34     19     31   1
    35     20     32   1
    36     33     34   2
    37     34     35   1
    38     35     36   2
    39     36     37   1
    40     37     38   2
    41     38     33   1
    42     39     40   1
    43     36     39   1
    44     34     41   1
    45     35     42   1
    46     37     43   1
    47     38     44   1
    48     40     45   1
    49     40     46   1
    50     40     47   1
    51     18     33   1
