# Produced with molli package
@<TRIPOS>MOLECULE
H_1_O
42 46 0 0 0
SMALL
USER_CHARGES

@<TRIPOS>ATOM
     1 N      -3.885552     0.549888     0.502504 N          1 UNL1 0.000
     2 C      -4.571957    -0.727659     0.503692 C          1 UNL1 0.000
     3 C      -4.579637     1.822642     0.510766 C          1 UNL1 0.000
     4 C      -5.981209     1.925850     0.524002 C          1 UNL1 0.000
     5 C      -6.606046     3.189958     0.532561 C          1 UNL1 0.000
     6 C      -5.861798     4.365344     0.528054 C          1 UNL1 0.000
     7 C      -4.479619     4.289850     0.517510 C          1 UNL1 0.000
     8 C      -3.851976     3.040040     0.511294 C          1 UNL1 0.000
     9 C      -3.836710    -1.940535     0.482859 C          1 UNL1 0.000
    10 C      -4.456260    -3.194220     0.485968 C          1 UNL1 0.000
    11 C      -5.837734    -3.278624     0.505356 C          1 UNL1 0.000
    12 C      -6.589449    -2.108010     0.520793 C          1 UNL1 0.000
    13 C      -5.972715    -0.839845     0.519914 C          1 UNL1 0.000
    14 S      -7.082964     0.539589     0.537080 S          1 UNL1 0.000
    15 C      -2.446737     0.552379     0.497418 C          1 UNL1 0.000
    16 C      -1.734661     0.448753     1.701045 C          1 UNL1 0.000
    17 C      -0.337239     0.431543     1.692184 C          1 UNL1 0.000
    18 C       0.375219     0.528194     0.486238 C          1 UNL1 0.000
    19 C      -0.344868     0.632888    -0.714713 C          1 UNL1 0.000
    20 C      -1.742615     0.643337    -0.711992 C          1 UNL1 0.000
    21 H      -7.692341     3.263591     0.544066 H          1 UNL1 0.000
    22 H      -6.361679     5.329909     0.534740 H          1 UNL1 0.000
    23 H      -3.881611     5.197423     0.515410 H          1 UNL1 0.000
    24 H      -2.764980     3.042691     0.508218 H          1 UNL1 0.000
    25 H      -2.749382    -1.937904     0.461948 H          1 UNL1 0.000
    26 H      -3.851338    -4.097256     0.472036 H          1 UNL1 0.000
    27 H      -6.330821    -4.246647     0.506666 H          1 UNL1 0.000
    28 H      -7.675147    -2.188933     0.532998 H          1 UNL1 0.000
    29 H      -2.271697     0.369277     2.642846 H          1 UNL1 0.000
    30 H       0.201097     0.332065     2.632747 H          1 UNL1 0.000
    31 H       0.186069     0.690863    -1.662824 H          1 UNL1 0.000
    32 H      -2.286259     0.713615    -1.650753 H          1 UNL1 0.000
    33 C       1.838553     0.515907     0.482781 C          1 UNL1 0.000
    34 N       2.416861    -0.709091     0.505705 N          1 UNL1 0.000
    35 C       3.767150    -0.755803     0.501320 C          1 UNL1 0.000
    36 C       4.578201     0.366403     0.480448 C          1 UNL1 0.000
    37 C       3.969820     1.615313     0.461277 C          1 UNL1 0.000
    38 C       2.579577     1.695365     0.460661 C          1 UNL1 0.000
    39 H       4.194091    -1.754533     0.515537 H          1 UNL1 0.000
    40 H       5.658029     0.268473     0.479752 H          1 UNL1 0.000
    41 H       4.571095     2.519760     0.447375 H          1 UNL1 0.000
    42 H       2.083884     2.660479     0.447513 H          1 UNL1 0.000
@<TRIPOS>BOND
     1      1      2   1
     2      1      3   1
     3      3      4   2
     4      4      5   1
     5      5      6   2
     6      6      7   1
     7      7      8   2
     8      8      3   1
     9      2      9   2
    10      9     10   1
    11     10     11   2
    12     11     12   1
    13     12     13   2
    14     13      2   1
    15      4     14   1
    16     14     13   1
    17     15     16   2
    18     16     17   1
    19     17     18   2
    20     18     19   1
    21     19     20   2
    22     20     15   1
    23      1     15   1
    24      5     21   1
    25      6     22   1
    26      7     23   1
    27      8     24   1
    28      9     25   1
    29     10     26   1
    30     11     27   1
    31     12     28   1
    32     16     29   1
    33     17     30   1
    34     19     31   1
    35     20     32   1
    36     33     34   2
    37     34     35   1
    38     35     36   2
    39     36     37   1
    40     37     38   2
    41     38     33   1
    42     35     39   1
    43     36     40   1
    44     37     41   1
    45     38     42   1
    46     18     33   1
