# Produced with molli package
@<TRIPOS>MOLECULE
H_1_R
44 48 0 0 0
SMALL
USER_CHARGES

@<TRIPOS>ATOM
     1 N      -3.854600     0.518635     0.483127 N          1 UNL1 0.000
     2 C      -4.550944    -0.752832     0.478172 C          1 UNL1 0.000
     3 C      -4.537440     1.797414     0.466954 C          1 UNL1 0.000
     4 C      -5.936610     1.913001     0.410447 C          1 UNL1 0.000
     5 C      -6.549210     3.182981     0.397266 C          1 UNL1 0.000
     6 C      -5.794999     4.351488     0.441650 C          1 UNL1 0.000
     7 C      -4.414886     4.263521     0.500612 C          1 UNL1 0.000
     8 C      -3.799457     3.008073     0.513709 C          1 UNL1 0.000
     9 C      -3.825991    -1.971240     0.520770 C          1 UNL1 0.000
    10 C      -4.456140    -3.219526     0.525707 C          1 UNL1 0.000
    11 C      -5.837821    -3.292459     0.483504 C          1 UNL1 0.000
    12 C      -6.579156    -2.116055     0.433759 C          1 UNL1 0.000
    13 C      -5.951880    -0.853232     0.429884 C          1 UNL1 0.000
    14 S      -7.048043     0.535676     0.349775 S          1 UNL1 0.000
    15 C      -2.416810     0.512034     0.502672 C          1 UNL1 0.000
    16 C      -1.723890     0.442506     1.719607 C          1 UNL1 0.000
    17 C      -0.326527     0.438094     1.733559 C          1 UNL1 0.000
    18 C       0.404922     0.518961     0.537699 C          1 UNL1 0.000
    19 C      -0.297738     0.583312    -0.677239 C          1 UNL1 0.000
    20 C      -1.694741     0.576179    -0.697169 C          1 UNL1 0.000
    21 H      -7.633876     3.267081     0.352504 H          1 UNL1 0.000
    22 H      -6.285784     5.320729     0.431679 H          1 UNL1 0.000
    23 H      -3.809492     5.165420     0.538203 H          1 UNL1 0.000
    24 H      -2.713800     3.000803     0.565616 H          1 UNL1 0.000
    25 H      -2.739111    -1.977258     0.552617 H          1 UNL1 0.000
    26 H      -3.859786    -4.127624     0.562684 H          1 UNL1 0.000
    27 H      -6.339140    -4.256313     0.486843 H          1 UNL1 0.000
    28 H      -7.664910    -2.188378     0.396476 H          1 UNL1 0.000
    29 H      -2.276153     0.387085     2.654496 H          1 UNL1 0.000
    30 H       0.195893     0.372165     2.686167 H          1 UNL1 0.000
    31 H       0.243188     0.623405    -1.620625 H          1 UNL1 0.000
    32 H      -2.224919     0.617644    -1.645549 H          1 UNL1 0.000
    33 C       1.868536     0.539025     0.558359 C          1 UNL1 0.000
    34 N       2.471923    -0.628507     0.899473 N          1 UNL1 0.000
    35 C       3.828120    -0.656791     0.907912 C          1 UNL1 0.000
    36 C       4.606423     0.445406     0.596343 C          1 UNL1 0.000
    37 C       3.983470     1.647079     0.260750 C          1 UNL1 0.000
    38 C       2.589793     1.691416     0.240727 C          1 UNL1 0.000
    39 N       6.053851     0.334916     0.616868 N          1 UNL1 0.000
    40 O       6.550494    -0.587130     1.277078 O          1 UNL1 0.000
    41 O       6.699539     1.172908    -0.028188 O          1 UNL1 0.000
    42 H       4.258408    -1.620018     1.170932 H          1 UNL1 0.000
    43 H       4.557617     2.538332     0.019714 H          1 UNL1 0.000
    44 H       2.073675     2.613355    -0.012127 H          1 UNL1 0.000
@<TRIPOS>BOND
     1      1      2   1
     2      1      3   1
     3      3      4   2
     4      4      5   1
     5      5      6   2
     6      6      7   1
     7      7      8   2
     8      8      3   1
     9      2      9   2
    10      9     10   1
    11     10     11   2
    12     11     12   1
    13     12     13   2
    14     13      2   1
    15      4     14   1
    16     14     13   1
    17     15     16   2
    18     16     17   1
    19     17     18   2
    20     18     19   1
    21     19     20   2
    22     20     15   1
    23      1     15   1
    24      5     21   1
    25      6     22   1
    26      7     23   1
    27      8     24   1
    28      9     25   1
    29     10     26   1
    30     11     27   1
    31     12     28   1
    32     16     29   1
    33     17     30   1
    34     19     31   1
    35     20     32   1
    36     33     34   2
    37     34     35   1
    38     35     36   2
    39     36     37   1
    40     37     38   2
    41     38     33   1
    42     39     40   2
    43     39     41   1
    44     36     39   1
    45     35     42   1
    46     37     43   1
    47     38     44   1
    48     18     33   1
