# Produced with molli package
@<TRIPOS>MOLECULE
H_1_L
47 52 0 0 0
SMALL
USER_CHARGES

@<TRIPOS>ATOM
     1 N      -3.888572     0.509576     0.534499 N          1 UNL1 0.000
     2 C      -4.571065    -0.769568     0.518556 C          1 UNL1 0.000
     3 C      -4.587872     1.779799     0.510844 C          1 UNL1 0.000
     4 C      -5.985630     1.878458     0.403184 C          1 UNL1 0.000
     5 C      -6.614486     3.140190     0.376103 C          1 UNL1 0.000
     6 C      -5.878314     4.317558     0.461093 C          1 UNL1 0.000
     7 C      -4.500549     4.246354     0.574802 C          1 UNL1 0.000
     8 C      -3.868716     2.999017     0.598161 C          1 UNL1 0.000
     9 C      -3.836511    -1.979478     0.601903 C          1 UNL1 0.000
    10 C      -4.454812    -3.234338     0.596382 C          1 UNL1 0.000
    11 C      -5.833492    -3.322537     0.505121 C          1 UNL1 0.000
    12 C      -6.583983    -2.154677     0.417317 C          1 UNL1 0.000
    13 C      -5.968797    -0.885888     0.422505 C          1 UNL1 0.000
    14 S      -7.076141     0.488886     0.282050 S          1 UNL1 0.000
    15 C      -2.449421     0.522273     0.532525 C          1 UNL1 0.000
    16 C      -1.733552     0.516864     1.738622 C          1 UNL1 0.000
    17 C      -0.335271     0.545526     1.727916 C          1 UNL1 0.000
    18 C       0.372556     0.578101     0.516436 C          1 UNL1 0.000
    19 C      -0.350558     0.582174    -0.686344 C          1 UNL1 0.000
    20 C      -1.747778     0.554545    -0.680933 C          1 UNL1 0.000
    21 H      -7.697331     3.210505     0.286464 H          1 UNL1 0.000
    22 H      -6.380835     5.280481     0.438801 H          1 UNL1 0.000
    23 H      -3.908706     5.155261     0.645356 H          1 UNL1 0.000
    24 H      -2.785489     3.005336     0.690605 H          1 UNL1 0.000
    25 H      -2.751976    -1.972062     0.676371 H          1 UNL1 0.000
    26 H      -3.852185    -4.136389     0.663908 H          1 UNL1 0.000
    27 H      -6.325605    -4.291142     0.499664 H          1 UNL1 0.000
    28 H      -7.667033    -2.237950     0.341588 H          1 UNL1 0.000
    29 H      -2.268007     0.493530     2.684967 H          1 UNL1 0.000
    30 H       0.204372     0.540995     2.672982 H          1 UNL1 0.000
    31 H       0.176799     0.609621    -1.637950 H          1 UNL1 0.000
    32 H      -2.293239     0.561844    -1.621256 H          1 UNL1 0.000
    33 C       1.838772     0.599007     0.502585 C          1 UNL1 0.000
    34 C       2.562733    -0.596358     0.390553 C          1 UNL1 0.000
    35 C       3.962626    -0.613125     0.360627 C          1 UNL1 0.000
    36 C       4.624389     0.615580     0.444349 C          1 UNL1 0.000
    37 C       3.946586     1.828574     0.558202 C          1 UNL1 0.000
    38 C       2.536895     1.818027     0.589637 C          1 UNL1 0.000
    39 N       5.971179     0.902557     0.434258 N          1 UNL1 0.000
    40 C       6.167551     2.254431     0.535887 C          1 UNL1 0.000
    41 C       4.931270     2.853962     0.615433 C          1 UNL1 0.000
    42 H       2.028523    -1.542934     0.322894 H          1 UNL1 0.000
    43 H       4.505429    -1.548278     0.272335 H          1 UNL1 0.000
    44 H       1.994098     2.755696     0.674327 H          1 UNL1 0.000
    45 H       6.703778     0.210709     0.359627 H          1 UNL1 0.000
    46 H       7.165895     2.670976     0.542212 H          1 UNL1 0.000
    47 H       4.751155     3.917290     0.703337 H          1 UNL1 0.000
@<TRIPOS>BOND
     1      1      2   1
     2      1      3   1
     3      3      4   2
     4      4      5   1
     5      5      6   2
     6      6      7   1
     7      7      8   2
     8      8      3   1
     9      2      9   2
    10      9     10   1
    11     10     11   2
    12     11     12   1
    13     12     13   2
    14     13      2   1
    15      4     14   1
    16     14     13   1
    17     15     16   2
    18     16     17   1
    19     17     18   2
    20     18     19   1
    21     19     20   2
    22     20     15   1
    23      1     15   1
    24      5     21   1
    25      6     22   1
    26      7     23   1
    27      8     24   1
    28      9     25   1
    29     10     26   1
    30     11     27   1
    31     12     28   1
    32     16     29   1
    33     17     30   1
    34     19     31   1
    35     20     32   1
    36     33     34   2
    37     34     35   1
    38     35     36   2
    39     36     37   1
    40     37     38   2
    41     38     33   1
    42     36     39   1
    43     39     40   1
    44     40     41   2
    45     41     37   1
    46     34     42   1
    47     35     43   1
    48     38     44   1
    49     39     45   1
    50     40     46   1
    51     41     47   1
    52     18     33   1
