# Produced with molli package
@<TRIPOS>MOLECULE
H_1_T
46 50 0 0 0
SMALL
USER_CHARGES

@<TRIPOS>ATOM
     1 N      -3.923273     0.583099     0.528173 N          1 UNL1 0.000
     2 C      -4.626013    -0.684787     0.535562 C          1 UNL1 0.000
     3 C      -4.600668     1.864487     0.496646 C          1 UNL1 0.000
     4 C      -6.000018     1.987214     0.538274 C          1 UNL1 0.000
     5 C      -6.608147     3.258720     0.499322 C          1 UNL1 0.000
     6 C      -5.849264     4.421901     0.415656 C          1 UNL1 0.000
     7 C      -4.468832     4.326839     0.372791 C          1 UNL1 0.000
     8 C      -3.857697     3.069839     0.413973 C          1 UNL1 0.000
     9 C      -3.907226    -1.907042     0.506364 C          1 UNL1 0.000
    10 C      -4.543927    -3.151947     0.492445 C          1 UNL1 0.000
    11 C      -5.926596    -3.217424     0.513550 C          1 UNL1 0.000
    12 C      -6.662047    -2.037115     0.555555 C          1 UNL1 0.000
    13 C      -6.027973    -0.777829     0.568843 C          1 UNL1 0.000
    14 S      -7.116782     0.616949     0.646175 S          1 UNL1 0.000
    15 C      -2.484945     0.569738     0.526844 C          1 UNL1 0.000
    16 C      -1.777095     0.640094     1.734702 C          1 UNL1 0.000
    17 C      -0.379973     0.633354     1.731382 C          1 UNL1 0.000
    18 C       0.334416     0.553337     0.525894 C          1 UNL1 0.000
    19 C      -0.380091     0.480598    -0.679411 C          1 UNL1 0.000
    20 C      -1.777343     0.490470    -0.681613 C          1 UNL1 0.000
    21 H      -7.692767     3.348147     0.533420 H          1 UNL1 0.000
    22 H      -6.336192     5.392539     0.383897 H          1 UNL1 0.000
    23 H      -3.859344     5.224286     0.305898 H          1 UNL1 0.000
    24 H      -2.771246     3.056914     0.374092 H          1 UNL1 0.000
    25 H      -2.820181    -1.917805     0.490552 H          1 UNL1 0.000
    26 H      -3.952405    -4.063360     0.464157 H          1 UNL1 0.000
    27 H      -6.433223    -4.178373     0.501227 H          1 UNL1 0.000
    28 H      -7.748614    -2.103297     0.579080 H          1 UNL1 0.000
    29 H      -2.316821     0.701559     2.676296 H          1 UNL1 0.000
    30 H       0.154448     0.689322     2.677759 H          1 UNL1 0.000
    31 H       0.153126     0.419322    -1.625998 H          1 UNL1 0.000
    32 H      -2.318760     0.437136    -1.622775 H          1 UNL1 0.000
    33 C       1.798901     0.547763     0.528946 C          1 UNL1 0.000
    34 C       2.511218    -0.659145     0.509807 C          1 UNL1 0.000
    35 C       3.909312    -0.665681     0.528148 C          1 UNL1 0.000
    36 C       4.622709     0.536738     0.563830 C          1 UNL1 0.000
    37 C       3.916889     1.744924     0.576908 C          1 UNL1 0.000
    38 C       2.519220     1.749547     0.560272 C          1 UNL1 0.000
    39 C       6.122298     0.545402     0.593550 C          1 UNL1 0.000
    40 H       1.976195    -1.606278     0.486624 H          1 UNL1 0.000
    41 H       4.433885    -1.618292     0.517600 H          1 UNL1 0.000
    42 H       4.451506     2.691823     0.602969 H          1 UNL1 0.000
    43 H       1.990950     2.700610     0.573114 H          1 UNL1 0.000
    44 H       6.477736     1.032664     1.507260 H          1 UNL1 0.000
    45 H       6.514336     1.081428    -0.276682 H          1 UNL1 0.000
    46 H       6.530674    -0.470369     0.574441 H          1 UNL1 0.000
@<TRIPOS>BOND
     1      1      2   1
     2      1      3   1
     3      3      4   2
     4      4      5   1
     5      5      6   2
     6      6      7   1
     7      7      8   2
     8      8      3   1
     9      2      9   2
    10      9     10   1
    11     10     11   2
    12     11     12   1
    13     12     13   2
    14     13      2   1
    15      4     14   1
    16     14     13   1
    17     15     16   2
    18     16     17   1
    19     17     18   2
    20     18     19   1
    21     19     20   2
    22     20     15   1
    23      1     15   1
    24      5     21   1
    25      6     22   1
    26      7     23   1
    27      8     24   1
    28      9     25   1
    29     10     26   1
    30     11     27   1
    31     12     28   1
    32     16     29   1
    33     17     30   1
    34     19     31   1
    35     20     32   1
    36     33     34   2
    37     34     35   1
    38     35     36   2
    39     36     37   1
    40     37     38   2
    41     38     33   1
    42     36     39   1
    43     34     40   1
    44     35     41   1
    45     37     42   1
    46     38     43   1
    47     39     44   1
    48     39     45   1
    49     39     46   1
    50     18     33   1
