# Produced with molli package
@<TRIPOS>MOLECULE
H_1_M
44 48 0 0 0
SMALL
USER_CHARGES

@<TRIPOS>ATOM
     1 N      -3.842735     0.562030     0.410233 N          1 UNL1 0.000
     2 C      -4.540011    -0.709589     0.409668 C          1 UNL1 0.000
     3 C      -4.527544     1.840290     0.421704 C          1 UNL1 0.000
     4 C      -5.927975     1.954741     0.390876 C          1 UNL1 0.000
     5 C      -6.543682     3.222937     0.416841 C          1 UNL1 0.000
     6 C      -5.791132     4.391708     0.470373 C          1 UNL1 0.000
     7 C      -4.409766     4.305442     0.494986 C          1 UNL1 0.000
     8 C      -3.791155     3.051425     0.470394 C          1 UNL1 0.000
     9 C      -3.816270    -1.928518     0.449812 C          1 UNL1 0.000
    10 C      -4.448012    -3.176509     0.457098 C          1 UNL1 0.000
    11 C      -5.830003    -3.248735     0.419938 C          1 UNL1 0.000
    12 C      -6.570313    -2.071887     0.375843 C          1 UNL1 0.000
    13 C      -5.941588    -0.809745     0.371590 C          1 UNL1 0.000
    14 S      -7.038807     0.578511     0.308897 S          1 UNL1 0.000
    15 C      -2.403984     0.556323     0.420165 C          1 UNL1 0.000
    16 C      -1.703370     0.533389     1.634706 C          1 UNL1 0.000
    17 C      -0.305765     0.529710     1.641558 C          1 UNL1 0.000
    18 C       0.417770     0.550229     0.439133 C          1 UNL1 0.000
    19 C      -0.289227     0.576710    -0.772912 C          1 UNL1 0.000
    20 C      -1.687286     0.578508    -0.784708 C          1 UNL1 0.000
    21 H      -7.629226     3.305210     0.394884 H          1 UNL1 0.000
    22 H      -6.283977     5.359718     0.491065 H          1 UNL1 0.000
    23 H      -3.805424     5.207977     0.534695 H          1 UNL1 0.000
    24 H      -2.704376     3.046191     0.493576 H          1 UNL1 0.000
    25 H      -2.729669    -1.934401     0.479393 H          1 UNL1 0.000
    26 H      -3.853460    -4.085759     0.492018 H          1 UNL1 0.000
    27 H      -6.332783    -4.211885     0.424292 H          1 UNL1 0.000
    28 H      -7.656456    -2.142869     0.344452 H          1 UNL1 0.000
    29 H      -2.250539     0.517943     2.574098 H          1 UNL1 0.000
    30 H       0.219392     0.510326     2.594530 H          1 UNL1 0.000
    31 H       0.248743     0.592454    -1.718804 H          1 UNL1 0.000
    32 H      -2.221703     0.597253    -1.731393 H          1 UNL1 0.000
    33 C       1.882732     0.534536     0.450992 C          1 UNL1 0.000
    34 C       2.582387    -0.680685     0.500687 C          1 UNL1 0.000
    35 C       3.980663    -0.701765     0.518514 C          1 UNL1 0.000
    36 C       4.700010     0.496163     0.487594 C          1 UNL1 0.000
    37 C       4.014176     1.713269     0.436885 C          1 UNL1 0.000
    38 C       2.615304     1.730561     0.418121 C          1 UNL1 0.000
    39 C       6.133576     0.475820     0.509133 C          1 UNL1 0.000
    40 N       7.293784     0.458026     0.527292 N          1 UNL1 0.000
    41 H       2.035598    -1.621934     0.525779 H          1 UNL1 0.000
    42 H       4.499360    -1.657922     0.557477 H          1 UNL1 0.000
    43 H       4.560036     2.654761     0.412982 H          1 UNL1 0.000
    44 H       2.095350     2.686457     0.380699 H          1 UNL1 0.000
@<TRIPOS>BOND
     1      1      2   1
     2      1      3   1
     3      3      4   2
     4      4      5   1
     5      5      6   2
     6      6      7   1
     7      7      8   2
     8      8      3   1
     9      2      9   2
    10      9     10   1
    11     10     11   2
    12     11     12   1
    13     12     13   2
    14     13      2   1
    15      4     14   1
    16     14     13   1
    17     15     16   2
    18     16     17   1
    19     17     18   2
    20     18     19   1
    21     19     20   2
    22     20     15   1
    23      1     15   1
    24      5     21   1
    25      6     22   1
    26      7     23   1
    27      8     24   1
    28      9     25   1
    29     10     26   1
    30     11     27   1
    31     12     28   1
    32     16     29   1
    33     17     30   1
    34     19     31   1
    35     20     32   1
    36     33     34   2
    37     34     35   1
    38     35     36   2
    39     36     37   1
    40     37     38   2
    41     38     33   1
    42     39     40   3
    43     36     39   1
    44     34     41   1
    45     35     42   1
    46     37     43   1
    47     38     44   1
    48     18     33   1
