# Produced with molli package
@<TRIPOS>MOLECULE
H_1_S
48 52 0 0 0
SMALL
USER_CHARGES

@<TRIPOS>ATOM
     1 N      -3.855708     0.470798     0.518168 N          1 UNL1 0.000
     2 C      -4.543526    -0.804443     0.466521 C          1 UNL1 0.000
     3 C      -4.547576     1.744854     0.535606 C          1 UNL1 0.000
     4 C      -5.948946     1.850706     0.526281 C          1 UNL1 0.000
     5 C      -6.571197     3.116005     0.541586 C          1 UNL1 0.000
     6 C      -5.824460     4.289742     0.564327 C          1 UNL1 0.000
     7 C      -4.442434     4.211507     0.572478 C          1 UNL1 0.000
     8 C      -3.817336     2.960620     0.558481 C          1 UNL1 0.000
     9 C      -3.809156    -2.017691     0.438025 C          1 UNL1 0.000
    10 C      -4.429403    -3.269300     0.374826 C          1 UNL1 0.000
    11 C      -5.810802    -3.350926     0.341646 C          1 UNL1 0.000
    12 C      -6.561685    -2.180091     0.377341 C          1 UNL1 0.000
    13 C      -5.944238    -0.914015     0.441446 C          1 UNL1 0.000
    14 S      -7.052621     0.466139     0.492008 S          1 UNL1 0.000
    15 C      -2.417370     0.472563     0.514896 C          1 UNL1 0.000
    16 C      -1.704879     0.491750     1.722278 C          1 UNL1 0.000
    17 C      -0.307109     0.494380     1.713980 C          1 UNL1 0.000
    18 C       0.402734     0.473864     0.503275 C          1 UNL1 0.000
    19 C      -0.317161     0.452581    -0.701170 C          1 UNL1 0.000
    20 C      -1.714040     0.453890    -0.697978 C          1 UNL1 0.000
    21 H      -7.657341     3.192308     0.534194 H          1 UNL1 0.000
    22 H      -6.322129     5.255476     0.574285 H          1 UNL1 0.000
    23 H      -3.842438     5.117747     0.588572 H          1 UNL1 0.000
    24 H      -2.730220     2.961774     0.563365 H          1 UNL1 0.000
    25 H      -2.722394    -2.015729     0.464110 H          1 UNL1 0.000
    26 H      -3.826279    -4.173203     0.351434 H          1 UNL1 0.000
    27 H      -6.305009    -4.317120     0.290875 H          1 UNL1 0.000
    28 H      -7.647416    -2.259230     0.354910 H          1 UNL1 0.000
    29 H      -2.242274     0.506301     2.667314 H          1 UNL1 0.000
    30 H       0.228731     0.511927     2.661028 H          1 UNL1 0.000
    31 H       0.210803     0.441723    -1.652679 H          1 UNL1 0.000
    32 H      -2.258838     0.441497    -1.638748 H          1 UNL1 0.000
    33 C       1.867356     0.483155     0.493180 C          1 UNL1 0.000
    34 C       2.574003     1.687467     0.605875 C          1 UNL1 0.000
    35 C       3.971900     1.698756     0.587362 C          1 UNL1 0.000
    36 C       4.692412     0.503945     0.460728 C          1 UNL1 0.000
    37 C       3.994644    -0.701983     0.336318 C          1 UNL1 0.000
    38 C       2.593700    -0.708965     0.356612 C          1 UNL1 0.000
    39 C       6.183409     0.578365     0.453374 C          1 UNL1 0.000
    40 C       6.999711    -0.680874     0.581758 C          1 UNL1 0.000
    41 O       6.735780     1.672525     0.326614 O          1 UNL1 0.000
    42 H       2.037243     2.629532     0.702567 H          1 UNL1 0.000
    43 H       4.496136     2.649462     0.672017 H          1 UNL1 0.000
    44 H       4.508693    -1.649900     0.210802 H          1 UNL1 0.000
    45 H       2.065349    -1.656509     0.262277 H          1 UNL1 0.000
    46 H       7.251260    -1.056461    -0.413081 H          1 UNL1 0.000
    47 H       6.483305    -1.450580     1.158474 H          1 UNL1 0.000
    48 H       7.920962    -0.446859     1.125078 H          1 UNL1 0.000
@<TRIPOS>BOND
     1      1      2   1
     2      1      3   1
     3      3      4   2
     4      4      5   1
     5      5      6   2
     6      6      7   1
     7      7      8   2
     8      8      3   1
     9      2      9   2
    10      9     10   1
    11     10     11   2
    12     11     12   1
    13     12     13   2
    14     13      2   1
    15      4     14   1
    16     14     13   1
    17     15     16   2
    18     16     17   1
    19     17     18   2
    20     18     19   1
    21     19     20   2
    22     20     15   1
    23      1     15   1
    24      5     21   1
    25      6     22   1
    26      7     23   1
    27      8     24   1
    28      9     25   1
    29     10     26   1
    30     11     27   1
    31     12     28   1
    32     16     29   1
    33     17     30   1
    34     19     31   1
    35     20     32   1
    36     33     34   2
    37     34     35   1
    38     35     36   2
    39     36     37   1
    40     37     38   2
    41     38     33   1
    42     36     39   1
    43     39     40   1
    44     39     41   2
    45     34     42   1
    46     35     43   1
    47     37     44   1
    48     38     45   1
    49     40     46   1
    50     40     47   1
    51     40     48   1
    52     18     33   1
