# Produced with molli package
@<TRIPOS>MOLECULE
H_1_Q
41 45 0 0 0
SMALL
USER_CHARGES

@<TRIPOS>ATOM
     1 N      -3.847178     0.479850     0.437007 N          1 UNL1 0.000
     2 C      -4.513931    -0.807597     0.425518 C          1 UNL1 0.000
     3 C      -4.559549     1.742022     0.468998 C          1 UNL1 0.000
     4 C      -5.962254     1.824697     0.482570 C          1 UNL1 0.000
     5 C      -6.604477     3.079471     0.520829 C          1 UNL1 0.000
     6 C      -5.876660     4.265135     0.543422 C          1 UNL1 0.000
     7 C      -4.493722     4.209842     0.523925 C          1 UNL1 0.000
     8 C      -3.849012     2.969626     0.485340 C          1 UNL1 0.000
     9 C      -3.759815    -2.009039     0.418193 C          1 UNL1 0.000
    10 C      -4.360085    -3.271889     0.404657 C          1 UNL1 0.000
    11 C      -5.740282    -3.377048     0.400091 C          1 UNL1 0.000
    12 C      -6.510031    -2.218006     0.411404 C          1 UNL1 0.000
    13 C      -5.912889    -0.940651     0.425530 C          1 UNL1 0.000
    14 S      -7.043355     0.422507     0.445926 S          1 UNL1 0.000
    15 C      -2.409394     0.505235     0.422577 C          1 UNL1 0.000
    16 C      -1.690882     0.572511     1.624770 C          1 UNL1 0.000
    17 C      -0.293892     0.597779     1.608788 C          1 UNL1 0.000
    18 C       0.411970     0.549923     0.395188 C          1 UNL1 0.000
    19 C      -0.315379     0.470340    -0.803412 C          1 UNL1 0.000
    20 C      -1.712632     0.455316    -0.792992 C          1 UNL1 0.000
    21 H      -7.691680     3.137904     0.532149 H          1 UNL1 0.000
    22 H      -6.389807     5.222302     0.573221 H          1 UNL1 0.000
    23 H      -3.908479     5.125665     0.537795 H          1 UNL1 0.000
    24 H      -2.762414     2.988590     0.467357 H          1 UNL1 0.000
    25 H      -2.672594    -1.989725     0.424714 H          1 UNL1 0.000
    26 H      -3.741662    -4.165827     0.398326 H          1 UNL1 0.000
    27 H      -6.218599    -4.352448     0.389575 H          1 UNL1 0.000
    28 H      -7.594441    -2.315575     0.410098 H          1 UNL1 0.000
    29 H      -2.223863     0.599167     2.572158 H          1 UNL1 0.000
    30 H       0.244612     0.637211     2.553925 H          1 UNL1 0.000
    31 H       0.210032     0.416497    -1.755367 H          1 UNL1 0.000
    32 H      -2.261646     0.396775    -1.729646 H          1 UNL1 0.000
    33 C       1.872796     0.580331     0.378014 C          1 UNL1 0.000
    34 N       2.498870    -0.596546     0.122965 N          1 UNL1 0.000
    35 C       3.851517    -0.555626     0.125253 C          1 UNL1 0.000
    36 C       4.562000     0.609456     0.360318 C          1 UNL1 0.000
    37 N       3.953520     1.790511     0.606908 N          1 UNL1 0.000
    38 C       2.597893     1.747105     0.611420 C          1 UNL1 0.000
    39 H       4.354632    -1.496413    -0.067082 H          1 UNL1 0.000
    40 H       5.645872     0.623245     0.356727 H          1 UNL1 0.000
    41 H       2.101806     2.692438     0.804940 H          1 UNL1 0.000
@<TRIPOS>BOND
     1      1      2   1
     2      1      3   1
     3      3      4   2
     4      4      5   1
     5      5      6   2
     6      6      7   1
     7      7      8   2
     8      8      3   1
     9      2      9   2
    10      9     10   1
    11     10     11   2
    12     11     12   1
    13     12     13   2
    14     13      2   1
    15      4     14   1
    16     14     13   1
    17     15     16   2
    18     16     17   1
    19     17     18   2
    20     18     19   1
    21     19     20   2
    22     20     15   1
    23      1     15   1
    24      5     21   1
    25      6     22   1
    26      7     23   1
    27      8     24   1
    28      9     25   1
    29     10     26   1
    30     11     27   1
    31     12     28   1
    32     16     29   1
    33     17     30   1
    34     19     31   1
    35     20     32   1
    36     33     34   2
    37     34     35   1
    38     35     36   2
    39     36     37   1
    40     37     38   2
    41     38     33   1
    42     35     39   1
    43     36     40   1
    44     38     41   1
    45     18     33   1
