# Produced with molli package
@<TRIPOS>MOLECULE
H_2_R
44 48 0 0 0
SMALL
USER_CHARGES

@<TRIPOS>ATOM
     1 N      -1.790879     0.498251     1.787458 N          1 UNL1 0.000
     2 C      -2.481822    -0.777396     1.788025 C          1 UNL1 0.000
     3 C      -2.480835     1.772476     1.796637 C          1 UNL1 0.000
     4 C      -3.879922     1.880206     1.725480 C          1 UNL1 0.000
     5 C      -4.500884     3.145837     1.736488 C          1 UNL1 0.000
     6 C      -3.755091     4.317468     1.820021 C          1 UNL1 0.000
     7 C      -2.375039     4.236924     1.893438 C          1 UNL1 0.000
     8 C      -1.751061     2.985667     1.881905 C          1 UNL1 0.000
     9 C      -1.752118    -1.991858     1.850035 C          1 UNL1 0.000
    10 C      -2.374849    -3.243646     1.842855 C          1 UNL1 0.000
    11 C      -3.754905    -3.324108     1.774578 C          1 UNL1 0.000
    12 C      -4.501364    -2.151462     1.711648 C          1 UNL1 0.000
    13 C      -3.880671    -0.885208     1.717154 C          1 UNL1 0.000
    14 S      -4.980680     0.498370     1.604908 S          1 UNL1 0.000
    15 C      -0.345276     0.496122     1.733729 C          1 UNL1 0.000
    16 C       0.372312     0.486569     2.947356 C          1 UNL1 0.000
    17 C       1.765420     0.504562     2.947520 C          1 UNL1 0.000
    18 C       2.457788     0.530855     1.740192 C          1 UNL1 0.000
    19 C       1.759103     0.540604     0.529711 C          1 UNL1 0.000
    20 C       0.351727     0.524436     0.499449 C          1 UNL1 0.000
    21 H      -5.585583     3.223466     1.680279 H          1 UNL1 0.000
    22 H      -4.252981     5.283130     1.830569 H          1 UNL1 0.000
    23 H      -1.777127     5.141767     1.965057 H          1 UNL1 0.000
    24 H      -0.666503     2.983309     1.951252 H          1 UNL1 0.000
    25 H      -0.665930    -1.990101     1.887663 H          1 UNL1 0.000
    26 H      -1.772885    -4.147563     1.881972 H          1 UNL1 0.000
    27 H      -4.250317    -4.290732     1.763041 H          1 UNL1 0.000
    28 H      -5.585491    -2.229530     1.651087 H          1 UNL1 0.000
    29 H      -0.168988     0.465598     3.890608 H          1 UNL1 0.000
    30 H       2.308738     0.494332     3.888969 H          1 UNL1 0.000
    31 H       3.545257     0.537564     1.738105 H          1 UNL1 0.000
    32 H       2.322165     0.547169    -0.402030 H          1 UNL1 0.000
    33 C      -0.348010     0.546535    -0.790398 C          1 UNL1 0.000
    34 N      -0.991549    -0.598287    -1.138592 N          1 UNL1 0.000
    35 C      -1.696702    -0.601540    -2.294096 C          1 UNL1 0.000
    36 C      -1.737648     0.487409    -3.144163 C          1 UNL1 0.000
    37 C      -1.043318     1.649163    -2.813480 C          1 UNL1 0.000
    38 C      -0.343442     1.679330    -1.608108 C          1 UNL1 0.000
    39 N      -2.490922     0.400890    -4.374729 N          1 UNL1 0.000
    40 O      -2.007558     0.949166    -5.374447 O          1 UNL1 0.000
    41 O      -3.564448    -0.215373    -4.345809 O          1 UNL1 0.000
    42 H      -2.222179    -1.528851    -2.506074 H          1 UNL1 0.000
    43 H      -1.054144     2.520675    -3.462427 H          1 UNL1 0.000
    44 H       0.185114     2.577790    -1.303671 H          1 UNL1 0.000
@<TRIPOS>BOND
     1      1      2   1
     2      1      3   1
     3      3      4   2
     4      4      5   1
     5      5      6   2
     6      6      7   1
     7      7      8   2
     8      8      3   1
     9      2      9   2
    10      9     10   1
    11     10     11   2
    12     11     12   1
    13     12     13   2
    14     13      2   1
    15      4     14   1
    16     14     13   1
    17     15     16   2
    18     16     17   1
    19     17     18   2
    20     18     19   1
    21     19     20   2
    22     20     15   1
    23      1     15   1
    24      5     21   1
    25      6     22   1
    26      7     23   1
    27      8     24   1
    28      9     25   1
    29     10     26   1
    30     11     27   1
    31     12     28   1
    32     16     29   1
    33     17     30   1
    34     18     31   1
    35     19     32   1
    36     33     34   2
    37     34     35   1
    38     35     36   2
    39     36     37   1
    40     37     38   2
    41     38     33   1
    42     39     40   2
    43     39     41   1
    44     36     39   1
    45     35     42   1
    46     37     43   1
    47     38     44   1
    48     20     33   1
