# Produced with molli package
@<TRIPOS>MOLECULE
H_2_S
48 52 0 0 0
SMALL
USER_CHARGES

@<TRIPOS>ATOM
     1 N      -1.824861     0.537628     1.829968 N          1 UNL1 0.000
     2 C      -2.496944    -0.746747     1.846249 C          1 UNL1 0.000
     3 C      -2.532785     1.802643     1.869893 C          1 UNL1 0.000
     4 C      -3.934353     1.891666     1.835844 C          1 UNL1 0.000
     5 C      -4.571162     3.149548     1.850398 C          1 UNL1 0.000
     6 C      -3.838918     4.331732     1.900878 C          1 UNL1 0.000
     7 C      -2.456943     4.269721     1.944842 C          1 UNL1 0.000
     8 C      -1.817925     3.026354     1.933783 C          1 UNL1 0.000
     9 C      -1.748666    -1.950960     1.886207 C          1 UNL1 0.000
    10 C      -2.354664    -3.210922     1.908668 C          1 UNL1 0.000
    11 C      -3.735342    -3.309736     1.895455 C          1 UNL1 0.000
    12 C      -4.499375    -2.147567     1.855737 C          1 UNL1 0.000
    13 C      -3.896134    -0.873412     1.829007 C          1 UNL1 0.000
    14 S      -5.019154     0.494126     1.760378 S          1 UNL1 0.000
    15 C      -0.380069     0.559226     1.775281 C          1 UNL1 0.000
    16 C       0.336903     0.580353     2.989191 C          1 UNL1 0.000
    17 C       1.729870     0.597543     2.990213 C          1 UNL1 0.000
    18 C       2.422652     0.595151     1.782915 C          1 UNL1 0.000
    19 C       1.724962     0.570096     0.572180 C          1 UNL1 0.000
    20 C       0.318660     0.549069     0.541314 C          1 UNL1 0.000
    21 H      -5.657610     3.213449     1.817612 H          1 UNL1 0.000
    22 H      -4.348200     5.291430     1.905118 H          1 UNL1 0.000
    23 H      -1.868286     5.182588     1.984366 H          1 UNL1 0.000
    24 H      -0.731447     3.039208     1.966777 H          1 UNL1 0.000
    25 H      -0.662065    -1.934080     1.903769 H          1 UNL1 0.000
    26 H      -1.741606    -4.107808     1.940038 H          1 UNL1 0.000
    27 H      -4.219208    -4.282253     1.916299 H          1 UNL1 0.000
    28 H      -5.584290    -2.239518     1.845145 H          1 UNL1 0.000
    29 H      -0.204684     0.581309     3.932532 H          1 UNL1 0.000
    30 H       2.272566     0.613090     3.931884 H          1 UNL1 0.000
    31 H       3.509937     0.611250     1.780613 H          1 UNL1 0.000
    32 H       2.287156     0.568087    -0.360253 H          1 UNL1 0.000
    33 C      -0.368791     0.496851    -0.757813 C          1 UNL1 0.000
    34 C      -0.923827     1.648014    -1.332474 C          1 UNL1 0.000
    35 C      -1.589137     1.586890    -2.560616 C          1 UNL1 0.000
    36 C      -1.703259     0.371843    -3.245857 C          1 UNL1 0.000
    37 C      -1.132417    -0.779024    -2.693443 C          1 UNL1 0.000
    38 C      -0.473680    -0.713601    -1.459866 C          1 UNL1 0.000
    39 C      -2.427920     0.358185    -4.551516 C          1 UNL1 0.000
    40 C      -2.681157    -0.959564    -5.236643 C          1 UNL1 0.000
    41 O      -2.789185     1.415757    -5.063622 O          1 UNL1 0.000
    42 H      -0.850523     2.605767    -0.822582 H          1 UNL1 0.000
    43 H      -2.022578     2.495378    -2.975179 H          1 UNL1 0.000
    44 H      -1.183171    -1.739910    -3.195867 H          1 UNL1 0.000
    45 H      -0.046952    -1.622010    -1.038498 H          1 UNL1 0.000
    46 H      -3.454078    -0.821749    -5.999385 H          1 UNL1 0.000
    47 H      -3.054496    -1.705287    -4.530536 H          1 UNL1 0.000
    48 H      -1.765005    -1.307035    -5.720620 H          1 UNL1 0.000
@<TRIPOS>BOND
     1      1      2   1
     2      1      3   1
     3      3      4   2
     4      4      5   1
     5      5      6   2
     6      6      7   1
     7      7      8   2
     8      8      3   1
     9      2      9   2
    10      9     10   1
    11     10     11   2
    12     11     12   1
    13     12     13   2
    14     13      2   1
    15      4     14   1
    16     14     13   1
    17     15     16   2
    18     16     17   1
    19     17     18   2
    20     18     19   1
    21     19     20   2
    22     20     15   1
    23      1     15   1
    24      5     21   1
    25      6     22   1
    26      7     23   1
    27      8     24   1
    28      9     25   1
    29     10     26   1
    30     11     27   1
    31     12     28   1
    32     16     29   1
    33     17     30   1
    34     18     31   1
    35     19     32   1
    36     33     34   2
    37     34     35   1
    38     35     36   2
    39     36     37   1
    40     37     38   2
    41     38     33   1
    42     36     39   1
    43     39     40   1
    44     39     41   2
    45     34     42   1
    46     35     43   1
    47     37     44   1
    48     38     45   1
    49     40     46   1
    50     40     47   1
    51     40     48   1
    52     20     33   1
