# Produced with molli package
@<TRIPOS>MOLECULE
H_2_P
47 51 0 0 0
SMALL
USER_CHARGES

@<TRIPOS>ATOM
     1 N      -1.878563     0.575087     1.822436 N          1 UNL1 0.000
     2 C      -2.554118    -0.707433     1.822407 C          1 UNL1 0.000
     3 C      -2.585194     1.840066     1.861715 C          1 UNL1 0.000
     4 C      -3.984432     1.931674     1.772117 C          1 UNL1 0.000
     5 C      -4.623221     3.187585     1.819564 C          1 UNL1 0.000
     6 C      -3.894956     4.365570     1.954632 C          1 UNL1 0.000
     7 C      -2.514717     4.301390     2.039485 C          1 UNL1 0.000
     8 C      -1.873461     3.059826     1.992131 C          1 UNL1 0.000
     9 C      -1.812702    -1.911364     1.932467 C          1 UNL1 0.000
    10 C      -2.421697    -3.169805     1.933370 C          1 UNL1 0.000
    11 C      -3.798550    -3.266751     1.826547 C          1 UNL1 0.000
    12 C      -4.556036    -2.104166     1.721262 C          1 UNL1 0.000
    13 C      -3.949785    -0.831457     1.720469 C          1 UNL1 0.000
    14 S      -5.060689     0.539680     1.567960 S          1 UNL1 0.000
    15 C      -0.434247     0.592233     1.769157 C          1 UNL1 0.000
    16 C       0.285731     0.646590     2.980370 C          1 UNL1 0.000
    17 C       1.679076     0.660622     2.978061 C          1 UNL1 0.000
    18 C       2.369535     0.618512     1.770209 C          1 UNL1 0.000
    19 C       1.668783     0.559326     0.562869 C          1 UNL1 0.000
    20 C       0.262265     0.543842     0.536094 C          1 UNL1 0.000
    21 H      -5.707615     3.252568     1.747067 H          1 UNL1 0.000
    22 H      -4.405712     5.323757     1.989726 H          1 UNL1 0.000
    23 H      -1.929099     5.211101     2.143073 H          1 UNL1 0.000
    24 H      -0.788899     3.070399     2.061635 H          1 UNL1 0.000
    25 H      -0.729674    -1.894585     2.022198 H          1 UNL1 0.000
    26 H      -1.813990    -4.066844     2.017354 H          1 UNL1 0.000
    27 H      -4.284315    -4.238430     1.823849 H          1 UNL1 0.000
    28 H      -5.637571    -2.194837     1.635826 H          1 UNL1 0.000
    29 H      -0.253935     0.676521     3.924210 H          1 UNL1 0.000
    30 H       2.223943     0.703184     3.917512 H          1 UNL1 0.000
    31 H       3.456761     0.629160     1.764360 H          1 UNL1 0.000
    32 H       2.227120     0.524185    -0.371258 H          1 UNL1 0.000
    33 C      -0.424800     0.465215    -0.761162 C          1 UNL1 0.000
    34 C      -0.902495     1.621046    -1.397741 C          1 UNL1 0.000
    35 C      -1.535946     1.544347    -2.641987 C          1 UNL1 0.000
    36 C      -1.684065     0.308860    -3.268918 C          1 UNL1 0.000
    37 C      -1.245068    -0.851449    -2.637384 C          1 UNL1 0.000
    38 C      -0.606682    -0.772232    -1.397832 C          1 UNL1 0.000
    39 O      -2.308662     0.157091    -4.476799 O          1 UNL1 0.000
    40 C      -1.727315     0.971346    -5.493127 C          1 UNL1 0.000
    41 H      -0.793336     2.591101    -0.918408 H          1 UNL1 0.000
    42 H      -1.926006     2.450363    -3.094324 H          1 UNL1 0.000
    43 H      -1.391779    -1.816852    -3.112674 H          1 UNL1 0.000
    44 H      -0.260054    -1.686788    -0.922277 H          1 UNL1 0.000
    45 H      -2.125738     0.637161    -6.455953 H          1 UNL1 0.000
    46 H      -0.637699     0.855570    -5.522188 H          1 UNL1 0.000
    47 H      -2.001128     2.023107    -5.365748 H          1 UNL1 0.000
@<TRIPOS>BOND
     1      1      2   1
     2      1      3   1
     3      3      4   2
     4      4      5   1
     5      5      6   2
     6      6      7   1
     7      7      8   2
     8      8      3   1
     9      2      9   2
    10      9     10   1
    11     10     11   2
    12     11     12   1
    13     12     13   2
    14     13      2   1
    15      4     14   1
    16     14     13   1
    17     15     16   2
    18     16     17   1
    19     17     18   2
    20     18     19   1
    21     19     20   2
    22     20     15   1
    23      1     15   1
    24      5     21   1
    25      6     22   1
    26      7     23   1
    27      8     24   1
    28      9     25   1
    29     10     26   1
    30     11     27   1
    31     12     28   1
    32     16     29   1
    33     17     30   1
    34     18     31   1
    35     19     32   1
    36     33     34   2
    37     34     35   1
    38     35     36   2
    39     36     37   1
    40     37     38   2
    41     38     33   1
    42     39     40   1
    43     36     39   1
    44     34     41   1
    45     35     42   1
    46     37     43   1
    47     38     44   1
    48     40     45   1
    49     40     46   1
    50     40     47   1
    51     20     33   1
