# Produced with molli package
@<TRIPOS>MOLECULE
H_2_N
40 44 0 0 0
SMALL
USER_CHARGES

@<TRIPOS>ATOM
     1 N      -1.748738     0.546357     1.788553 N          1 UNL1 0.000
     2 C      -2.436749    -0.729383     1.823241 C          1 UNL1 0.000
     3 C      -2.440218     1.820725     1.795302 C          1 UNL1 0.000
     4 C      -3.841063     1.926570     1.792894 C          1 UNL1 0.000
     5 C      -4.462480     3.192337     1.796703 C          1 UNL1 0.000
     6 C      -3.715376     4.366194     1.801110 C          1 UNL1 0.000
     7 C      -2.333497     4.287888     1.803612 C          1 UNL1 0.000
     8 C      -1.709484     3.036693     1.802693 C          1 UNL1 0.000
     9 C      -1.702823    -1.942678     1.862913 C          1 UNL1 0.000
    10 C      -2.323431    -3.195426     1.881249 C          1 UNL1 0.000
    11 C      -3.705025    -3.277768     1.867626 C          1 UNL1 0.000
    12 C      -4.455330    -2.106353     1.838057 C          1 UNL1 0.000
    13 C      -3.837323    -0.839154     1.816363 C          1 UNL1 0.000
    14 S      -4.944901     0.542030     1.777032 S          1 UNL1 0.000
    15 C      -0.306074     0.548485     1.729427 C          1 UNL1 0.000
    16 C       0.420504     0.576419     2.935864 C          1 UNL1 0.000
    17 C       1.815256     0.587016     2.924520 C          1 UNL1 0.000
    18 C       2.501718     0.570113     1.711720 C          1 UNL1 0.000
    19 C       1.797130     0.540637     0.506197 C          1 UNL1 0.000
    20 C       0.394715     0.526779     0.502066 C          1 UNL1 0.000
    21 H      -5.548605     3.268491     1.794379 H          1 UNL1 0.000
    22 H      -4.213121     5.331867     1.802087 H          1 UNL1 0.000
    23 H      -1.733165     5.193908     1.806471 H          1 UNL1 0.000
    24 H      -0.622584     3.037093     1.804927 H          1 UNL1 0.000
    25 H      -0.616045    -1.939682     1.875686 H          1 UNL1 0.000
    26 H      -1.720906    -4.099681     1.904622 H          1 UNL1 0.000
    27 H      -4.200069    -4.244752     1.879847 H          1 UNL1 0.000
    28 H      -5.541161    -2.185796     1.829276 H          1 UNL1 0.000
    29 H      -0.112732     0.591967     3.883812 H          1 UNL1 0.000
    30 H       2.365140     0.610205     3.862065 H          1 UNL1 0.000
    31 H       3.589077     0.580749     1.703030 H          1 UNL1 0.000
    32 H       2.347070     0.529550    -0.432676 H          1 UNL1 0.000
    33 C      -0.296087     0.503285    -0.778615 C          1 UNL1 0.000
    34 C      -0.599751    -0.686925    -1.408886 C          1 UNL1 0.000
    35 S      -1.413388    -0.444890    -2.895212 S          1 UNL1 0.000
    36 C      -1.353737     1.254768    -2.713861 C          1 UNL1 0.000
    37 C      -0.728334     1.629007    -1.544927 C          1 UNL1 0.000
    38 H      -0.396900    -1.692882    -1.068196 H          1 UNL1 0.000
    39 H      -1.782566     1.897124    -3.470318 H          1 UNL1 0.000
    40 H      -0.597328     2.662139    -1.247832 H          1 UNL1 0.000
@<TRIPOS>BOND
     1      1      2   1
     2      1      3   1
     3      3      4   2
     4      4      5   1
     5      5      6   2
     6      6      7   1
     7      7      8   2
     8      8      3   1
     9      2      9   2
    10      9     10   1
    11     10     11   2
    12     11     12   1
    13     12     13   2
    14     13      2   1
    15      4     14   1
    16     14     13   1
    17     15     16   2
    18     16     17   1
    19     17     18   2
    20     18     19   1
    21     19     20   2
    22     20     15   1
    23      1     15   1
    24      5     21   1
    25      6     22   1
    26      7     23   1
    27      8     24   1
    28      9     25   1
    29     10     26   1
    30     11     27   1
    31     12     28   1
    32     16     29   1
    33     17     30   1
    34     18     31   1
    35     19     32   1
    36     33     34   2
    37     34     35   1
    38     35     36   1
    39     36     37   2
    40     37     33   1
    41     34     38   1
    42     36     39   1
    43     37     40   1
    44     20     33   1
