# Produced with molli package
@<TRIPOS>MOLECULE
H_2_M
44 48 0 0 0
SMALL
USER_CHARGES

@<TRIPOS>ATOM
     1 N      -1.764932     0.491439     1.784290 N          1 UNL1 0.000
     2 C      -2.439836    -0.791992     1.797534 C          1 UNL1 0.000
     3 C      -2.469932     1.757236     1.826508 C          1 UNL1 0.000
     4 C      -3.871616     1.848491     1.790721 C          1 UNL1 0.000
     5 C      -4.507285     3.106627     1.818748 C          1 UNL1 0.000
     6 C      -3.773540     4.287265     1.879442 C          1 UNL1 0.000
     7 C      -2.391272     4.223103     1.918965 C          1 UNL1 0.000
     8 C      -1.753245     2.979017     1.897923 C          1 UNL1 0.000
     9 C      -1.693620    -1.997406     1.848624 C          1 UNL1 0.000
    10 C      -2.300793    -3.256600     1.857282 C          1 UNL1 0.000
    11 C      -3.680900    -3.353574     1.817196 C          1 UNL1 0.000
    12 C      -4.443083    -2.190255     1.770692 C          1 UNL1 0.000
    13 C      -3.838554    -0.916523     1.761737 C          1 UNL1 0.000
    14 S      -4.958008     0.453571     1.689661 S          1 UNL1 0.000
    15 C      -0.321005     0.505084     1.708980 C          1 UNL1 0.000
    16 C       0.415696     0.498696     2.910831 C          1 UNL1 0.000
    17 C       1.808511     0.474300     2.888269 C          1 UNL1 0.000
    18 C       2.481063     0.459036     1.669449 C          1 UNL1 0.000
    19 C       1.763427     0.469709     0.470302 C          1 UNL1 0.000
    20 C       0.357175     0.492628     0.463702 C          1 UNL1 0.000
    21 H      -5.593855     3.171640     1.789411 H          1 UNL1 0.000
    22 H      -4.282126     5.247284     1.895815 H          1 UNL1 0.000
    23 H      -1.802028     5.135265     1.966160 H          1 UNL1 0.000
    24 H      -0.666776     2.988943     1.932504 H          1 UNL1 0.000
    25 H      -0.607440    -1.982861     1.885102 H          1 UNL1 0.000
    26 H      -1.689059    -4.154108     1.896857 H          1 UNL1 0.000
    27 H      -4.165703    -4.325845     1.822807 H          1 UNL1 0.000
    28 H      -5.527641    -2.281506     1.739769 H          1 UNL1 0.000
    29 H      -0.109939     0.502071     3.863121 H          1 UNL1 0.000
    30 H       2.367123     0.461902     3.820694 H          1 UNL1 0.000
    31 H       3.568087     0.436074     1.649254 H          1 UNL1 0.000
    32 H       2.309690     0.456833    -0.471422 H          1 UNL1 0.000
    33 C      -0.354445     0.484669    -0.822976 C          1 UNL1 0.000
    34 C      -0.839704     1.674277    -1.387028 C          1 UNL1 0.000
    35 C      -1.527803     1.663349    -2.603933 C          1 UNL1 0.000
    36 C      -1.731038     0.459016    -3.282115 C          1 UNL1 0.000
    37 C      -1.240936    -0.731651    -2.738993 C          1 UNL1 0.000
    38 C      -0.557283    -0.716720    -1.519369 C          1 UNL1 0.000
    39 C      -2.435300     0.445604    -4.530416 C          1 UNL1 0.000
    40 N      -2.999544     0.435230    -5.544934 N          1 UNL1 0.000
    41 H      -0.691871     2.621551    -0.872831 H          1 UNL1 0.000
    42 H      -1.904815     2.599515    -3.010961 H          1 UNL1 0.000
    43 H      -1.391177    -1.678222    -3.254239 H          1 UNL1 0.000
    44 H      -0.191484    -1.654025    -1.104406 H          1 UNL1 0.000
@<TRIPOS>BOND
     1      1      2   1
     2      1      3   1
     3      3      4   2
     4      4      5   1
     5      5      6   2
     6      6      7   1
     7      7      8   2
     8      8      3   1
     9      2      9   2
    10      9     10   1
    11     10     11   2
    12     11     12   1
    13     12     13   2
    14     13      2   1
    15      4     14   1
    16     14     13   1
    17     15     16   2
    18     16     17   1
    19     17     18   2
    20     18     19   1
    21     19     20   2
    22     20     15   1
    23      1     15   1
    24      5     21   1
    25      6     22   1
    26      7     23   1
    27      8     24   1
    28      9     25   1
    29     10     26   1
    30     11     27   1
    31     12     28   1
    32     16     29   1
    33     17     30   1
    34     18     31   1
    35     19     32   1
    36     33     34   2
    37     34     35   1
    38     35     36   2
    39     36     37   1
    40     37     38   2
    41     38     33   1
    42     39     40   3
    43     36     39   1
    44     34     41   1
    45     35     42   1
    46     37     43   1
    47     38     44   1
    48     20     33   1
