# Produced with molli package
@<TRIPOS>MOLECULE
H_2_K
45 49 0 0 0
SMALL
USER_CHARGES

@<TRIPOS>ATOM
     1 N      -1.783628     0.512279     1.751574 N          1 UNL1 0.000
     2 C      -2.477389    -0.760791     1.737923 C          1 UNL1 0.000
     3 C      -2.469666     1.787038     1.830003 C          1 UNL1 0.000
     4 C      -3.870043     1.899548     1.808346 C          1 UNL1 0.000
     5 C      -4.487228     3.164494     1.890395 C          1 UNL1 0.000
     6 C      -3.736025     4.331332     1.991384 C          1 UNL1 0.000
     7 C      -2.354502     4.246522     2.011660 C          1 UNL1 0.000
     8 C      -1.734674     2.995597     1.933930 C          1 UNL1 0.000
     9 C      -1.749292    -1.977962     1.758879 C          1 UNL1 0.000
    10 C      -2.375307    -3.227701     1.731557 C          1 UNL1 0.000
    11 C      -3.756763    -3.302930     1.688756 C          1 UNL1 0.000
    12 C      -4.501555    -2.127625     1.674801 C          1 UNL1 0.000
    13 C      -3.877949    -0.863432     1.699233 C          1 UNL1 0.000
    14 S      -4.976675     0.524741     1.662078 S          1 UNL1 0.000
    15 C      -0.339429     0.509542     1.686910 C          1 UNL1 0.000
    16 C       0.389170     0.468379     2.892802 C          1 UNL1 0.000
    17 C       1.782294     0.462250     2.879185 C          1 UNL1 0.000
    18 C       2.463137     0.496948     1.665327 C          1 UNL1 0.000
    19 C       1.753479     0.539216     0.462228 C          1 UNL1 0.000
    20 C       0.347303     0.546689     0.447346 C          1 UNL1 0.000
    21 H      -5.572947     3.246017     1.874145 H          1 UNL1 0.000
    22 H      -4.230418     5.296893     2.053196 H          1 UNL1 0.000
    23 H      -1.751723     5.147609     2.090134 H          1 UNL1 0.000
    24 H      -0.648029     2.989976     1.958407 H          1 UNL1 0.000
    25 H      -0.662904    -1.980125     1.795073 H          1 UNL1 0.000
    26 H      -1.777382    -4.135300     1.744776 H          1 UNL1 0.000
    27 H      -4.256183    -4.267623     1.667192 H          1 UNL1 0.000
    28 H      -5.587421    -2.201844     1.642259 H          1 UNL1 0.000
    29 H      -0.142740     0.441034     3.841234 H          1 UNL1 0.000
    30 H       2.334803     0.430147     3.814789 H          1 UNL1 0.000
    31 H       3.550522     0.491445     1.652336 H          1 UNL1 0.000
    32 H       2.306128     0.566109    -0.475448 H          1 UNL1 0.000
    33 C      -0.356044     0.595577    -0.842416 C          1 UNL1 0.000
    34 C      -0.642492     1.827856    -1.453639 C          1 UNL1 0.000
    35 C      -1.312794     1.882726    -2.678618 C          1 UNL1 0.000
    36 C      -1.701942     0.691573    -3.300790 C          1 UNL1 0.000
    37 C      -1.422732    -0.546966    -2.713842 C          1 UNL1 0.000
    38 C      -0.746478    -0.587722    -1.491740 C          1 UNL1 0.000
    39 N      -2.402785     0.741843    -4.585845 N          1 UNL1 0.000
    40 O      -2.313153     1.785369    -5.248679 O          1 UNL1 0.000
    41 O      -3.035318    -0.264696    -4.936688 O          1 UNL1 0.000
    42 H      -0.350006     2.756731    -0.967070 H          1 UNL1 0.000
    43 H      -1.528306     2.851026    -3.124801 H          1 UNL1 0.000
    44 H      -1.720783    -1.479093    -3.188677 H          1 UNL1 0.000
    45 H      -0.531771    -1.553449    -1.037844 H          1 UNL1 0.000
@<TRIPOS>BOND
     1      1      2   1
     2      1      3   1
     3      3      4   2
     4      4      5   1
     5      5      6   2
     6      6      7   1
     7      7      8   2
     8      8      3   1
     9      2      9   2
    10      9     10   1
    11     10     11   2
    12     11     12   1
    13     12     13   2
    14     13      2   1
    15      4     14   1
    16     14     13   1
    17     15     16   2
    18     16     17   1
    19     17     18   2
    20     18     19   1
    21     19     20   2
    22     20     15   1
    23      1     15   1
    24      5     21   1
    25      6     22   1
    26      7     23   1
    27      8     24   1
    28      9     25   1
    29     10     26   1
    30     11     27   1
    31     12     28   1
    32     16     29   1
    33     17     30   1
    34     18     31   1
    35     19     32   1
    36     33     34   2
    37     34     35   1
    38     35     36   2
    39     36     37   1
    40     37     38   2
    41     38     33   1
    42     39     40   2
    43     39     41   1
    44     36     39   1
    45     34     42   1
    46     35     43   1
    47     37     44   1
    48     38     45   1
    49     20     33   1
