# Produced with molli package
@<TRIPOS>MOLECULE
H_2_L
47 52 0 0 0
SMALL
USER_CHARGES

@<TRIPOS>ATOM
     1 N      -1.872340     0.627294     1.767181 N          1 UNL1 0.000
     2 C      -2.571421    -0.642774     1.753371 C          1 UNL1 0.000
     3 C      -2.554717     1.905608     1.806798 C          1 UNL1 0.000
     4 C      -3.952416     2.024302     1.728729 C          1 UNL1 0.000
     5 C      -4.564749     3.294122     1.757179 C          1 UNL1 0.000
     6 C      -3.811550     4.459322     1.863493 C          1 UNL1 0.000
     7 C      -2.432790     4.367986     1.945008 C          1 UNL1 0.000
     8 C      -1.817985     3.112559     1.918744 C          1 UNL1 0.000
     9 C      -1.850559    -1.862238     1.823359 C          1 UNL1 0.000
    10 C      -2.482598    -3.109339     1.816477 C          1 UNL1 0.000
    11 C      -3.863040    -3.179470     1.741997 C          1 UNL1 0.000
    12 C      -4.600703    -2.001574     1.673432 C          1 UNL1 0.000
    13 C      -3.970924    -0.740050     1.678358 C          1 UNL1 0.000
    14 S      -5.060962     0.652017     1.571556 S          1 UNL1 0.000
    15 C      -0.426923     0.616877     1.730114 C          1 UNL1 0.000
    16 C       0.276986     0.635785     2.951970 C          1 UNL1 0.000
    17 C       1.669962     0.612785     2.969299 C          1 UNL1 0.000
    18 C       2.376045     0.568638     1.770594 C          1 UNL1 0.000
    19 C       1.691321     0.546217     0.552615 C          1 UNL1 0.000
    20 C       0.285344     0.569775     0.505193 C          1 UNL1 0.000
    21 H      -5.648118     3.380204     1.692174 H          1 UNL1 0.000
    22 H      -4.301991     5.428508     1.881032 H          1 UNL1 0.000
    23 H      -1.827482     5.266895     2.027465 H          1 UNL1 0.000
    24 H      -0.732892     3.101448     1.982211 H          1 UNL1 0.000
    25 H      -0.765515    -1.867715     1.885479 H          1 UNL1 0.000
    26 H      -1.889401    -4.018394     1.868715 H          1 UNL1 0.000
    27 H      -4.366513    -4.142007     1.734628 H          1 UNL1 0.000
    28 H      -5.685369    -2.071266     1.612340 H          1 UNL1 0.000
    29 H      -0.275225     0.664913     3.888530 H          1 UNL1 0.000
    30 H       2.202210     0.626858     3.916780 H          1 UNL1 0.000
    31 H       3.463098     0.549413     1.779935 H          1 UNL1 0.000
    32 H       2.261879     0.510425    -0.374162 H          1 UNL1 0.000
    33 C      -0.386338     0.531359    -0.803770 C          1 UNL1 0.000
    34 C      -0.898222     1.700934    -1.383121 C          1 UNL1 0.000
    35 C      -1.541418     1.692445    -2.626532 C          1 UNL1 0.000
    36 C      -1.648607     0.466170    -3.288064 C          1 UNL1 0.000
    37 C      -1.145796    -0.720585    -2.757661 C          1 UNL1 0.000
    38 C      -0.507320    -0.685173    -1.502132 C          1 UNL1 0.000
    39 N      -2.221806     0.157008    -4.500735 N          1 UNL1 0.000
    40 C      -2.090208    -1.181732    -4.759281 C          1 UNL1 0.000
    41 C      -1.429414    -1.751925    -3.695110 C          1 UNL1 0.000
    42 H      -0.803939     2.648422    -0.856518 H          1 UNL1 0.000
    43 H      -1.941054     2.607376    -3.050463 H          1 UNL1 0.000
    44 H      -0.118639    -1.604144    -1.072568 H          1 UNL1 0.000
    45 H      -2.673930     0.827292    -5.106726 H          1 UNL1 0.000
    46 H      -2.480295    -1.611530    -5.671758 H          1 UNL1 0.000
    47 H      -1.176960    -2.799227    -3.596441 H          1 UNL1 0.000
@<TRIPOS>BOND
     1      1      2   1
     2      1      3   1
     3      3      4   2
     4      4      5   1
     5      5      6   2
     6      6      7   1
     7      7      8   2
     8      8      3   1
     9      2      9   2
    10      9     10   1
    11     10     11   2
    12     11     12   1
    13     12     13   2
    14     13      2   1
    15      4     14   1
    16     14     13   1
    17     15     16   2
    18     16     17   1
    19     17     18   2
    20     18     19   1
    21     19     20   2
    22     20     15   1
    23      1     15   1
    24      5     21   1
    25      6     22   1
    26      7     23   1
    27      8     24   1
    28      9     25   1
    29     10     26   1
    30     11     27   1
    31     12     28   1
    32     16     29   1
    33     17     30   1
    34     18     31   1
    35     19     32   1
    36     33     34   2
    37     34     35   1
    38     35     36   2
    39     36     37   1
    40     37     38   2
    41     38     33   1
    42     36     39   1
    43     39     40   1
    44     40     41   2
    45     41     37   1
    46     34     42   1
    47     35     43   1
    48     38     44   1
    49     39     45   1
    50     40     46   1
    51     41     47   1
    52     20     33   1
