# Produced with molli package
@<TRIPOS>MOLECULE
H_2_T
46 50 0 0 0
SMALL
USER_CHARGES

@<TRIPOS>ATOM
     1 N      -1.791376     0.569114     1.757583 N          1 UNL1 0.000
     2 C      -2.505196    -0.692509     1.724217 C          1 UNL1 0.000
     3 C      -2.457791     1.855537     1.807760 C          1 UNL1 0.000
     4 C      -3.855347     1.990932     1.763797 C          1 UNL1 0.000
     5 C      -4.450985     3.268833     1.789575 C          1 UNL1 0.000
     6 C      -3.681063     4.425704     1.861264 C          1 UNL1 0.000
     7 C      -2.302311     4.317677     1.916542 C          1 UNL1 0.000
     8 C      -1.704115     3.054102     1.894866 C          1 UNL1 0.000
     9 C      -1.796366    -1.921298     1.730169 C          1 UNL1 0.000
    10 C      -2.441664    -3.161045     1.691990 C          1 UNL1 0.000
    11 C      -3.824118    -3.214629     1.652843 C          1 UNL1 0.000
    12 C      -4.550373    -2.027661     1.651447 C          1 UNL1 0.000
    13 C      -3.907077    -0.773215     1.685624 C          1 UNL1 0.000
    14 S      -4.985834     0.631196     1.666620 S          1 UNL1 0.000
    15 C      -0.346438     0.542181     1.706145 C          1 UNL1 0.000
    16 C       0.368045     0.501431     2.920802 C          1 UNL1 0.000
    17 C       1.760652     0.457689     2.923239 C          1 UNL1 0.000
    18 C       2.455215     0.453440     1.716704 C          1 UNL1 0.000
    19 C       1.759665     0.494117     0.505208 C          1 UNL1 0.000
    20 C       0.354306     0.539978     0.473274 C          1 UNL1 0.000
    21 H      -5.534429     3.368025     1.749610 H          1 UNL1 0.000
    22 H      -4.158866     5.401272     1.874211 H          1 UNL1 0.000
    23 H      -1.684198     5.209807     1.973548 H          1 UNL1 0.000
    24 H      -0.618246     3.029511     1.938010 H          1 UNL1 0.000
    25 H      -0.710111    -1.940139     1.761428 H          1 UNL1 0.000
    26 H      -1.857030    -4.077181     1.692673 H          1 UNL1 0.000
    27 H      -4.338276    -4.171109     1.622737 H          1 UNL1 0.000
    28 H      -5.637127    -2.084271     1.620456 H          1 UNL1 0.000
    29 H      -0.175190     0.500248     3.863024 H          1 UNL1 0.000
    30 H       2.301730     0.424701     3.865299 H          1 UNL1 0.000
    31 H       3.541919     0.417667     1.715223 H          1 UNL1 0.000
    32 H       2.320984     0.490423    -0.427728 H          1 UNL1 0.000
    33 C      -0.332055     0.575890    -0.826515 C          1 UNL1 0.000
    34 C      -0.750122     1.790738    -1.387292 C          1 UNL1 0.000
    35 C      -1.415140     1.824438    -2.616076 C          1 UNL1 0.000
    36 C      -1.666539     0.641513    -3.316923 C          1 UNL1 0.000
    37 C      -1.238944    -0.573836    -2.771724 C          1 UNL1 0.000
    38 C      -0.577344    -0.605128    -1.540839 C          1 UNL1 0.000
    39 C      -2.388913     0.661475    -4.630658 C          1 UNL1 0.000
    40 H      -0.569212     2.724750    -0.861112 H          1 UNL1 0.000
    41 H      -1.739865     2.782684    -3.014208 H          1 UNL1 0.000
    42 H      -1.425997    -1.506801    -3.298113 H          1 UNL1 0.000
    43 H      -0.264336    -1.563259    -1.132590 H          1 UNL1 0.000
    44 H      -3.310539     0.074566    -4.562912 H          1 UNL1 0.000
    45 H      -1.752404     0.244420    -5.417536 H          1 UNL1 0.000
    46 H      -2.661240     1.680708    -4.924010 H          1 UNL1 0.000
@<TRIPOS>BOND
     1      1      2   1
     2      1      3   1
     3      3      4   2
     4      4      5   1
     5      5      6   2
     6      6      7   1
     7      7      8   2
     8      8      3   1
     9      2      9   2
    10      9     10   1
    11     10     11   2
    12     11     12   1
    13     12     13   2
    14     13      2   1
    15      4     14   1
    16     14     13   1
    17     15     16   2
    18     16     17   1
    19     17     18   2
    20     18     19   1
    21     19     20   2
    22     20     15   1
    23      1     15   1
    24      5     21   1
    25      6     22   1
    26      7     23   1
    27      8     24   1
    28      9     25   1
    29     10     26   1
    30     11     27   1
    31     12     28   1
    32     16     29   1
    33     17     30   1
    34     18     31   1
    35     19     32   1
    36     33     34   2
    37     34     35   1
    38     35     36   2
    39     36     37   1
    40     37     38   2
    41     38     33   1
    42     36     39   1
    43     34     40   1
    44     35     41   1
    45     37     42   1
    46     38     43   1
    47     39     44   1
    48     39     45   1
    49     39     46   1
    50     20     33   1
