# Produced with molli package
@<TRIPOS>MOLECULE
H_2_O
42 46 0 0 0
SMALL
USER_CHARGES

@<TRIPOS>ATOM
     1 N      -1.842736     0.543713     1.743516 N          1 UNL1 0.000
     2 C      -2.516924    -0.740492     1.761389 C          1 UNL1 0.000
     3 C      -2.549051     1.808694     1.779894 C          1 UNL1 0.000
     4 C      -3.951046     1.898187     1.752749 C          1 UNL1 0.000
     5 C      -4.588522     3.155047     1.796958 C          1 UNL1 0.000
     6 C      -3.856498     4.336022     1.869505 C          1 UNL1 0.000
     7 C      -2.473853     4.273841     1.895319 C          1 UNL1 0.000
     8 C      -1.833776     3.031485     1.849792 C          1 UNL1 0.000
     9 C      -1.771155    -1.945664     1.804230 C          1 UNL1 0.000
    10 C      -2.378524    -3.204757     1.837718 C          1 UNL1 0.000
    11 C      -3.759102    -3.302551     1.826504 C          1 UNL1 0.000
    12 C      -4.521427    -2.139708     1.775066 C          1 UNL1 0.000
    13 C      -3.916086    -0.866252     1.740848 C          1 UNL1 0.000
    14 S      -5.037066     0.502629     1.655694 S          1 UNL1 0.000
    15 C      -0.396767     0.560384     1.719361 C          1 UNL1 0.000
    16 C       0.295235     0.581927     2.948062 C          1 UNL1 0.000
    17 C       1.688080     0.612723     2.978693 C          1 UNL1 0.000
    18 C       2.406545     0.619130     1.786536 C          1 UNL1 0.000
    19 C       1.733788     0.594846     0.562150 C          1 UNL1 0.000
    20 C       0.327550     0.566786     0.502300 C          1 UNL1 0.000
    21 H      -5.675272     3.217972     1.775863 H          1 UNL1 0.000
    22 H      -4.366545     5.294507     1.906311 H          1 UNL1 0.000
    23 H      -1.885587     5.185778     1.954269 H          1 UNL1 0.000
    24 H      -0.747421     3.043744     1.877357 H          1 UNL1 0.000
    25 H      -0.684206    -1.930668     1.797354 H          1 UNL1 0.000
    26 H      -1.763748    -4.100396     1.864781 H          1 UNL1 0.000
    27 H      -4.242471    -4.274910     1.849385 H          1 UNL1 0.000
    28 H      -5.605960    -2.230786     1.757783 H          1 UNL1 0.000
    29 H      -0.266270     0.573524     3.879540 H          1 UNL1 0.000
    30 H       2.210337     0.626698     3.931645 H          1 UNL1 0.000
    31 H       3.493517     0.635610     1.806594 H          1 UNL1 0.000
    32 H       2.312469     0.585345    -0.360060 H          1 UNL1 0.000
    33 C      -0.336320     0.547869    -0.804083 C          1 UNL1 0.000
    34 N      -0.750135    -0.667233    -1.240578 N          1 UNL1 0.000
    35 C      -1.381547    -0.714611    -2.432493 C          1 UNL1 0.000
    36 C      -1.591199     0.390441    -3.240055 C          1 UNL1 0.000
    37 C      -1.132000     1.624150    -2.795046 C          1 UNL1 0.000
    38 C      -0.497943     1.708030    -1.559021 C          1 UNL1 0.000
    39 H      -1.727644    -1.699982    -2.731168 H          1 UNL1 0.000
    40 H      -2.101827     0.291857    -4.190744 H          1 UNL1 0.000
    41 H      -1.273722     2.514489    -3.400333 H          1 UNL1 0.000
    42 H      -0.143117     2.663809    -1.187584 H          1 UNL1 0.000
@<TRIPOS>BOND
     1      1      2   1
     2      1      3   1
     3      3      4   2
     4      4      5   1
     5      5      6   2
     6      6      7   1
     7      7      8   2
     8      8      3   1
     9      2      9   2
    10      9     10   1
    11     10     11   2
    12     11     12   1
    13     12     13   2
    14     13      2   1
    15      4     14   1
    16     14     13   1
    17     15     16   2
    18     16     17   1
    19     17     18   2
    20     18     19   1
    21     19     20   2
    22     20     15   1
    23      1     15   1
    24      5     21   1
    25      6     22   1
    26      7     23   1
    27      8     24   1
    28      9     25   1
    29     10     26   1
    30     11     27   1
    31     12     28   1
    32     16     29   1
    33     17     30   1
    34     18     31   1
    35     19     32   1
    36     33     34   2
    37     34     35   1
    38     35     36   2
    39     36     37   1
    40     37     38   2
    41     38     33   1
    42     35     39   1
    43     36     40   1
    44     37     41   1
    45     38     42   1
    46     20     33   1
