# Produced with molli package
@<TRIPOS>MOLECULE
H_2_Q
41 45 0 0 0
SMALL
USER_CHARGES

@<TRIPOS>ATOM
     1 N      -1.802214     0.576924     1.734700 N          1 UNL1 0.000
     2 C      -2.497663    -0.695915     1.767220 C          1 UNL1 0.000
     3 C      -2.485850     1.854709     1.766097 C          1 UNL1 0.000
     4 C      -3.885952     1.968070     1.799107 C          1 UNL1 0.000
     5 C      -4.500195     3.236968     1.814994 C          1 UNL1 0.000
     6 C      -3.746693     4.406463     1.800462 C          1 UNL1 0.000
     7 C      -2.365407     4.320656     1.775025 C          1 UNL1 0.000
     8 C      -1.748056     3.066280     1.761051 C          1 UNL1 0.000
     9 C      -1.772349    -1.914356     1.748136 C          1 UNL1 0.000
    10 C      -2.399728    -3.163545     1.784603 C          1 UNL1 0.000
    11 C      -3.780482    -3.237815     1.842907 C          1 UNL1 0.000
    12 C      -4.523230    -2.061406     1.857960 C          1 UNL1 0.000
    13 C      -3.897961    -0.797732     1.817892 C          1 UNL1 0.000
    14 S      -4.997781     0.590206     1.828452 S          1 UNL1 0.000
    15 C      -0.357173     0.568318     1.685354 C          1 UNL1 0.000
    16 C       0.355824     0.575700     2.901299 C          1 UNL1 0.000
    17 C       1.749129     0.576565     2.906491 C          1 UNL1 0.000
    18 C       2.446256     0.566512     1.701545 C          1 UNL1 0.000
    19 C       1.752015     0.556471     0.488761 C          1 UNL1 0.000
    20 C       0.345152     0.559952     0.455362 C          1 UNL1 0.000
    21 H      -5.585646     3.319252     1.838514 H          1 UNL1 0.000
    22 H      -4.239162     5.374820     1.810927 H          1 UNL1 0.000
    23 H      -1.761269     5.224158     1.766711 H          1 UNL1 0.000
    24 H      -0.661466     3.061843     1.748006 H          1 UNL1 0.000
    25 H      -0.686945    -1.918894     1.687090 H          1 UNL1 0.000
    26 H      -1.800852    -4.070096     1.760603 H          1 UNL1 0.000
    27 H      -4.279641    -4.202148     1.870561 H          1 UNL1 0.000
    28 H      -5.608675    -2.134000     1.898685 H          1 UNL1 0.000
    29 H      -0.188713     0.578901     3.842983 H          1 UNL1 0.000
    30 H       2.288725     0.579620     3.850125 H          1 UNL1 0.000
    31 H       3.533722     0.559481     1.703338 H          1 UNL1 0.000
    32 H       2.316341     0.534342    -0.442343 H          1 UNL1 0.000
    33 C      -0.346175     0.557970    -0.833838 C          1 UNL1 0.000
    34 N      -0.753386    -0.649120    -1.302822 N          1 UNL1 0.000
    35 C      -1.412197    -0.628284    -2.483682 C          1 UNL1 0.000
    36 C      -1.626072     0.538467    -3.198301 C          1 UNL1 0.000
    37 N      -1.195362     1.743236    -2.764254 N          1 UNL1 0.000
    38 C      -0.562378     1.724629    -1.564770 C          1 UNL1 0.000
    39 H      -1.769315    -1.586214    -2.843504 H          1 UNL1 0.000
    40 H      -2.153373     0.534201    -4.145147 H          1 UNL1 0.000
    41 H      -0.227567     2.690041    -1.201056 H          1 UNL1 0.000
@<TRIPOS>BOND
     1      1      2   1
     2      1      3   1
     3      3      4   2
     4      4      5   1
     5      5      6   2
     6      6      7   1
     7      7      8   2
     8      8      3   1
     9      2      9   2
    10      9     10   1
    11     10     11   2
    12     11     12   1
    13     12     13   2
    14     13      2   1
    15      4     14   1
    16     14     13   1
    17     15     16   2
    18     16     17   1
    19     17     18   2
    20     18     19   1
    21     19     20   2
    22     20     15   1
    23      1     15   1
    24      5     21   1
    25      6     22   1
    26      7     23   1
    27      8     24   1
    28      9     25   1
    29     10     26   1
    30     11     27   1
    31     12     28   1
    32     16     29   1
    33     17     30   1
    34     18     31   1
    35     19     32   1
    36     33     34   2
    37     34     35   1
    38     35     36   2
    39     36     37   1
    40     37     38   2
    41     38     33   1
    42     35     39   1
    43     36     40   1
    44     38     41   1
    45     20     33   1
