# Produced with molli package
@<TRIPOS>MOLECULE
H_3_N
52 58 0 0 0
SMALL
USER_CHARGES

@<TRIPOS>ATOM
     1 N      -3.837312     0.467690     0.490951 N          1 UNL1 0.000
     2 C      -4.531598    -0.805761     0.449038 C          1 UNL1 0.000
     3 C      -4.522521     1.746952     0.502877 C          1 UNL1 0.000
     4 C      -5.921816     1.859978     0.442205 C          1 UNL1 0.000
     5 C      -6.538248     3.127738     0.461158 C          1 UNL1 0.000
     6 C      -5.787259     4.296232     0.540255 C          1 UNL1 0.000
     7 C      -4.406819     4.210002     0.598729 C          1 UNL1 0.000
     8 C      -3.787170     2.956665     0.578618 C          1 UNL1 0.000
     9 C      -3.804427    -2.022348     0.478565 C          1 UNL1 0.000
    10 C      -4.431632    -3.270927     0.431044 C          1 UNL1 0.000
    11 C      -5.811830    -3.345009     0.353265 C          1 UNL1 0.000
    12 C      -6.555206    -2.169245     0.326389 C          1 UNL1 0.000
    13 C      -5.931087    -0.906214     0.375050 C          1 UNL1 0.000
    14 S      -7.028524     0.482497     0.327393 S          1 UNL1 0.000
    15 C      -2.353284     0.465603     2.987774 C          1 UNL1 0.000
    16 C      -1.672001     0.472802     4.203485 C          1 UNL1 0.000
    17 C      -0.289624     0.482044     4.207459 C          1 UNL1 0.000
    18 C       0.400216     0.482186     2.995435 C          1 UNL1 0.000
    19 C      -0.264910     0.472463     1.739426 C          1 UNL1 0.000
    20 C      -1.678098     0.466617     1.740854 C          1 UNL1 0.000
    21 C       0.424200     0.466240     0.487541 C          1 UNL1 0.000
    22 C      -0.268042     0.452406    -0.762449 C          1 UNL1 0.000
    23 C      -1.681133     0.451955    -0.759769 C          1 UNL1 0.000
    24 C      -2.373997     0.462232     0.491450 C          1 UNL1 0.000
    25 C       0.393499     0.437836    -2.020439 C          1 UNL1 0.000
    26 C      -0.299749     0.418619    -3.230464 C          1 UNL1 0.000
    27 C      -1.681983     0.419981    -3.222626 C          1 UNL1 0.000
    28 C      -2.359480     0.439362    -2.005094 C          1 UNL1 0.000
    29 H      -7.622857     3.210481     0.412571 H          1 UNL1 0.000
    30 H      -6.280170     5.264359     0.554406 H          1 UNL1 0.000
    31 H      -3.803474     5.112090     0.660338 H          1 UNL1 0.000
    32 H      -2.701248     2.952165     0.627246 H          1 UNL1 0.000
    33 H      -2.719126    -2.026879     0.540294 H          1 UNL1 0.000
    34 H      -3.834252    -4.178747     0.454422 H          1 UNL1 0.000
    35 H      -6.310539    -4.309430     0.313851 H          1 UNL1 0.000
    36 H      -7.639838    -2.242471     0.265144 H          1 UNL1 0.000
    37 H      -3.441744     0.458130     3.022062 H          1 UNL1 0.000
    38 H      -2.225539     0.470935     5.138442 H          1 UNL1 0.000
    39 H       0.257607     0.487550     5.146211 H          1 UNL1 0.000
    40 H       1.487889     0.487487     3.045586 H          1 UNL1 0.000
    41 H       1.480993     0.437931    -2.073743 H          1 UNL1 0.000
    42 H       0.244540     0.402636    -4.170754 H          1 UNL1 0.000
    43 H      -2.238687     0.405515    -4.155574 H          1 UNL1 0.000
    44 H      -3.447943     0.441248    -2.037480 H          1 UNL1 0.000
    45 C       1.891456     0.488892     0.486167 C          1 UNL1 0.000
    46 C       2.629080    -0.678988     0.469595 C          1 UNL1 0.000
    47 S       4.314350    -0.377024     0.474904 S          1 UNL1 0.000
    48 C       4.069266     1.316150     0.501589 C          1 UNL1 0.000
    49 C       2.731819     1.646074     0.504598 C          1 UNL1 0.000
    50 H       2.263860    -1.697354     0.453888 H          1 UNL1 0.000
    51 H       4.917014     1.987465     0.513898 H          1 UNL1 0.000
    52 H       2.370261     2.667366     0.520793 H          1 UNL1 0.000
@<TRIPOS>BOND
     1      1      2   1
     2      1      3   1
     3      3      4   2
     4      4      5   1
     5      5      6   2
     6      6      7   1
     7      7      8   2
     8      8      3   1
     9      2      9   2
    10      9     10   1
    11     10     11   2
    12     11     12   1
    13     12     13   2
    14     13      2   1
    15      4     14   1
    16     14     13   1
    17     15     16   2
    18     16     17   1
    19     17     18   2
    20     18     19   1
    21     19     20   2
    22     20     15   1
    23     19     21   1
    24     21     22   2
    25     22     23   1
    26     23     24   2
    27     24     20   1
    28     22     25   1
    29     25     26   2
    30     26     27   1
    31     27     28   2
    32     28     23   1
    33      1     24   1
    34      5     29   1
    35      6     30   1
    36      7     31   1
    37      8     32   1
    38      9     33   1
    39     10     34   1
    40     11     35   1
    41     12     36   1
    42     15     37   1
    43     16     38   1
    44     17     39   1
    45     18     40   1
    46     25     41   1
    47     26     42   1
    48     27     43   1
    49     28     44   1
    50     45     46   2
    51     46     47   1
    52     47     48   1
    53     48     49   2
    54     49     45   1
    55     46     50   1
    56     48     51   1
    57     49     52   1
    58     21     45   1
