# Produced with molli package
@<TRIPOS>MOLECULE
H_3_S
60 66 0 0 0
SMALL
USER_CHARGES

@<TRIPOS>ATOM
     1 N      -3.825380     0.508332     0.461876 N          1 UNL1 0.000
     2 C      -4.519403    -0.765820     0.448238 C          1 UNL1 0.000
     3 C      -4.510653     1.787518     0.458868 C          1 UNL1 0.000
     4 C      -5.910974     1.899420     0.479606 C          1 UNL1 0.000
     5 C      -6.526379     3.167712     0.471754 C          1 UNL1 0.000
     6 C      -5.773277     4.337326     0.441388 C          1 UNL1 0.000
     7 C      -4.391778     4.251887     0.421214 C          1 UNL1 0.000
     8 C      -3.773306     2.998216     0.431588 C          1 UNL1 0.000
     9 C      -3.790754    -1.981481     0.415078 C          1 UNL1 0.000
    10 C      -4.418629    -3.230521     0.390491 C          1 UNL1 0.000
    11 C      -5.800939    -3.306019     0.400227 C          1 UNL1 0.000
    12 C      -6.545543    -2.131280     0.438082 C          1 UNL1 0.000
    13 C      -5.920717    -0.867812     0.463181 C          1 UNL1 0.000
    14 S      -7.019819     0.519443     0.521448 S          1 UNL1 0.000
    15 C      -2.352842     0.497298     2.958582 C          1 UNL1 0.000
    16 C      -1.677689     0.501515     4.177242 C          1 UNL1 0.000
    17 C      -0.295692     0.509457     4.186684 C          1 UNL1 0.000
    18 C       0.399291     0.510567     2.977260 C          1 UNL1 0.000
    19 C      -0.257752     0.504557     1.717999 C          1 UNL1 0.000
    20 C      -1.671681     0.500835     1.714859 C          1 UNL1 0.000
    21 C       0.451198     0.506441     0.473199 C          1 UNL1 0.000
    22 C      -0.249911     0.515491    -0.775783 C          1 UNL1 0.000
    23 C      -1.664056     0.514043    -0.780535 C          1 UNL1 0.000
    24 C      -2.362513     0.504430     0.465248 C          1 UNL1 0.000
    25 C       0.413794     0.528866    -2.031325 C          1 UNL1 0.000
    26 C      -0.275373     0.543748    -3.244400 C          1 UNL1 0.000
    27 C      -1.657507     0.541674    -3.242577 C          1 UNL1 0.000
    28 C      -2.338774     0.525560    -2.027756 C          1 UNL1 0.000
    29 H      -7.611916     3.250157     0.489128 H          1 UNL1 0.000
    30 H      -6.265360     5.305917     0.434000 H          1 UNL1 0.000
    31 H      -3.786551     5.154488     0.396883 H          1 UNL1 0.000
    32 H      -2.686360     2.994146     0.414436 H          1 UNL1 0.000
    33 H      -2.703778    -1.984502     0.404745 H          1 UNL1 0.000
    34 H      -3.820393    -4.137622     0.362731 H          1 UNL1 0.000
    35 H      -6.300397    -4.270676     0.379909 H          1 UNL1 0.000
    36 H      -7.631795    -2.205657     0.448231 H          1 UNL1 0.000
    37 H      -3.441422     0.493857     2.988341 H          1 UNL1 0.000
    38 H      -2.235586     0.501499     5.109537 H          1 UNL1 0.000
    39 H       0.247355     0.517041     5.127808 H          1 UNL1 0.000
    40 H       1.486399     0.521311     3.034588 H          1 UNL1 0.000
    41 H       1.501237     0.532435    -2.082415 H          1 UNL1 0.000
    42 H       0.272076     0.558681    -4.182898 H          1 UNL1 0.000
    43 H      -2.210908     0.554121    -4.177510 H          1 UNL1 0.000
    44 H      -3.427236     0.525088    -2.063293 H          1 UNL1 0.000
    45 C       1.933754     0.499401     0.480534 C          1 UNL1 0.000
    46 C       2.656263     1.699957     0.447800 C          1 UNL1 0.000
    47 C       4.054286     1.689620     0.462208 C          1 UNL1 0.000
    48 C       4.761497     0.479776     0.514495 C          1 UNL1 0.000
    49 C       4.046327    -0.721612     0.557731 C          1 UNL1 0.000
    50 C       2.645516    -0.709438     0.533644 C          1 UNL1 0.000
    51 C       6.256159     0.542853     0.528242 C          1 UNL1 0.000
    52 C       7.070043    -0.725520     0.561966 C          1 UNL1 0.000
    53 O       6.814961     1.638360     0.543298 O          1 UNL1 0.000
    54 H       2.131337     2.653041     0.412432 H          1 UNL1 0.000
    55 H       4.589404     2.637863     0.435903 H          1 UNL1 0.000
    56 H       4.541703    -1.685341     0.614799 H          1 UNL1 0.000
    57 H       2.103798    -1.653920     0.563269 H          1 UNL1 0.000
    58 H       8.014373    -0.547396     0.037136 H          1 UNL1 0.000
    59 H       6.581474    -1.553525     0.047453 H          1 UNL1 0.000
    60 H       7.280605    -0.994229     1.600134 H          1 UNL1 0.000
@<TRIPOS>BOND
     1      1      2   1
     2      1      3   1
     3      3      4   2
     4      4      5   1
     5      5      6   2
     6      6      7   1
     7      7      8   2
     8      8      3   1
     9      2      9   2
    10      9     10   1
    11     10     11   2
    12     11     12   1
    13     12     13   2
    14     13      2   1
    15      4     14   1
    16     14     13   1
    17     15     16   2
    18     16     17   1
    19     17     18   2
    20     18     19   1
    21     19     20   2
    22     20     15   1
    23     19     21   1
    24     21     22   2
    25     22     23   1
    26     23     24   2
    27     24     20   1
    28     22     25   1
    29     25     26   2
    30     26     27   1
    31     27     28   2
    32     28     23   1
    33      1     24   1
    34      5     29   1
    35      6     30   1
    36      7     31   1
    37      8     32   1
    38      9     33   1
    39     10     34   1
    40     11     35   1
    41     12     36   1
    42     15     37   1
    43     16     38   1
    44     17     39   1
    45     18     40   1
    46     25     41   1
    47     26     42   1
    48     27     43   1
    49     28     44   1
    50     45     46   2
    51     46     47   1
    52     47     48   2
    53     48     49   1
    54     49     50   2
    55     50     45   1
    56     48     51   1
    57     51     52   1
    58     51     53   2
    59     46     54   1
    60     47     55   1
    61     49     56   1
    62     50     57   1
    63     52     58   1
    64     52     59   1
    65     52     60   1
    66     21     45   1
