# Produced with molli package
@<TRIPOS>MOLECULE
H_3_R
56 62 0 0 0
SMALL
USER_CHARGES

@<TRIPOS>ATOM
     1 N      -3.805844     0.487760     0.496228 N          1 UNL1 0.000
     2 C      -4.501781    -0.785389     0.501146 C          1 UNL1 0.000
     3 C      -4.488101     1.767939     0.466275 C          1 UNL1 0.000
     4 C      -5.887575     1.882480     0.427203 C          1 UNL1 0.000
     5 C      -6.499090     3.152198     0.392492 C          1 UNL1 0.000
     6 C      -5.743005     4.320399     0.397616 C          1 UNL1 0.000
     7 C      -4.362227     4.232327     0.438872 C          1 UNL1 0.000
     8 C      -3.747724     2.977290     0.472762 C          1 UNL1 0.000
     9 C      -3.775237    -2.002162     0.540435 C          1 UNL1 0.000
    10 C      -4.405026    -3.250463     0.540856 C          1 UNL1 0.000
    11 C      -5.786961    -3.324057     0.502500 C          1 UNL1 0.000
    12 C      -6.529540    -2.147960     0.465610 C          1 UNL1 0.000
    13 C      -5.902922    -0.885127     0.465339 C          1 UNL1 0.000
    14 S      -6.999552     0.504552     0.412693 S          1 UNL1 0.000
    15 C      -2.311153     0.516867     2.981808 C          1 UNL1 0.000
    16 C      -1.624622     0.538523     4.193880 C          1 UNL1 0.000
    17 C      -0.242390     0.541428     4.190486 C          1 UNL1 0.000
    18 C       0.441752     0.525955     2.974835 C          1 UNL1 0.000
    19 C      -0.227614     0.511799     1.722033 C          1 UNL1 0.000
    20 C      -1.641360     0.502116     1.732137 C          1 UNL1 0.000
    21 C       0.467851     0.508904     0.470467 C          1 UNL1 0.000
    22 C      -0.243118     0.472485    -0.771507 C          1 UNL1 0.000
    23 C      -1.656623     0.464230    -0.763355 C          1 UNL1 0.000
    24 C      -2.343450     0.481529     0.488828 C          1 UNL1 0.000
    25 C       0.410504     0.445337    -2.032423 C          1 UNL1 0.000
    26 C      -0.288685     0.424206    -3.239350 C          1 UNL1 0.000
    27 C      -1.670675     0.424728    -3.225413 C          1 UNL1 0.000
    28 C      -2.341641     0.441989    -2.004775 C          1 UNL1 0.000
    29 H      -7.584119     3.236833     0.359870 H          1 UNL1 0.000
    30 H      -6.232542     5.289900     0.369594 H          1 UNL1 0.000
    31 H      -3.755041     5.133809     0.444380 H          1 UNL1 0.000
    32 H      -2.661386     2.970534     0.504695 H          1 UNL1 0.000
    33 H      -2.688332    -2.007603     0.571662 H          1 UNL1 0.000
    34 H      -3.807883    -4.158380     0.570519 H          1 UNL1 0.000
    35 H      -6.287374    -4.288432     0.501072 H          1 UNL1 0.000
    36 H      -7.615479    -2.220983     0.435550 H          1 UNL1 0.000
    37 H      -3.399483     0.509008     3.021328 H          1 UNL1 0.000
    38 H      -2.173909     0.546821     5.131327 H          1 UNL1 0.000
    39 H       0.308712     0.549242     5.127000 H          1 UNL1 0.000
    40 H       1.529312     0.511371     3.022293 H          1 UNL1 0.000
    41 H       1.497304     0.425924    -2.093011 H          1 UNL1 0.000
    42 H       0.250495     0.400946    -4.182450 H          1 UNL1 0.000
    43 H      -2.232113     0.405114    -4.155415 H          1 UNL1 0.000
    44 H      -3.430297     0.435079    -2.031380 H          1 UNL1 0.000
    45 C       1.942878     0.571742     0.459905 C          1 UNL1 0.000
    46 N       2.587998    -0.625999     0.480685 N          1 UNL1 0.000
    47 C       3.941672    -0.608978     0.470266 C          1 UNL1 0.000
    48 C       4.664809     0.567252     0.446581 C          1 UNL1 0.000
    49 C       4.015228     1.796848     0.427167 C          1 UNL1 0.000
    50 C       2.621857     1.795485     0.430246 C          1 UNL1 0.000
    51 N       6.098836     0.500683     0.444735 N          1 UNL1 0.000
    52 O       6.673900     0.794235     1.500079 O          1 UNL1 0.000
    53 O       6.642488     0.158674    -0.611454 O          1 UNL1 0.000
    54 H       4.417832    -1.585320     0.487491 H          1 UNL1 0.000
    55 H       4.568270     2.731463     0.406135 H          1 UNL1 0.000
    56 H       2.069003     2.730688     0.410319 H          1 UNL1 0.000
@<TRIPOS>BOND
     1      1      2   1
     2      1      3   1
     3      3      4   2
     4      4      5   1
     5      5      6   2
     6      6      7   1
     7      7      8   2
     8      8      3   1
     9      2      9   2
    10      9     10   1
    11     10     11   2
    12     11     12   1
    13     12     13   2
    14     13      2   1
    15      4     14   1
    16     14     13   1
    17     15     16   2
    18     16     17   1
    19     17     18   2
    20     18     19   1
    21     19     20   2
    22     20     15   1
    23     19     21   1
    24     21     22   2
    25     22     23   1
    26     23     24   2
    27     24     20   1
    28     22     25   1
    29     25     26   2
    30     26     27   1
    31     27     28   2
    32     28     23   1
    33      1     24   1
    34      5     29   1
    35      6     30   1
    36      7     31   1
    37      8     32   1
    38      9     33   1
    39     10     34   1
    40     11     35   1
    41     12     36   1
    42     15     37   1
    43     16     38   1
    44     17     39   1
    45     18     40   1
    46     25     41   1
    47     26     42   1
    48     27     43   1
    49     28     44   1
    50     45     46   2
    51     46     47   1
    52     47     48   2
    53     48     49   1
    54     49     50   2
    55     50     45   1
    56     51     52   2
    57     51     53   1
    58     48     51   1
    59     47     54   1
    60     49     55   1
    61     50     56   1
    62     21     45   1
