# Produced with molli package
@<TRIPOS>MOLECULE
H_3_O
54 60 0 0 0
SMALL
USER_CHARGES

@<TRIPOS>ATOM
     1 N      -3.914963     0.547451     0.498529 N          1 UNL1 0.000
     2 C      -4.597405    -0.732813     0.483347 C          1 UNL1 0.000
     3 C      -4.611209     1.820285     0.511626 C          1 UNL1 0.000
     4 C      -6.012305     1.919972     0.475448 C          1 UNL1 0.000
     5 C      -6.639531     3.182324     0.495521 C          1 UNL1 0.000
     6 C      -5.897455     4.358010     0.551182 C          1 UNL1 0.000
     7 C      -4.515405     4.284518     0.585046 C          1 UNL1 0.000
     8 C      -3.885112     3.036735     0.564558 C          1 UNL1 0.000
     9 C      -3.857956    -1.942260     0.510789 C          1 UNL1 0.000
    10 C      -4.473721    -3.197319     0.502647 C          1 UNL1 0.000
    11 C      -5.854665    -3.285356     0.463931 C          1 UNL1 0.000
    12 C      -6.609747    -2.116978     0.433337 C          1 UNL1 0.000
    13 C      -5.997018    -0.847343     0.443288 C          1 UNL1 0.000
    14 S      -7.107982     0.530821     0.395227 S          1 UNL1 0.000
    15 C      -2.439364     0.532388     2.996990 C          1 UNL1 0.000
    16 C      -1.762118     0.522585     4.214472 C          1 UNL1 0.000
    17 C      -0.379922     0.521997     4.221591 C          1 UNL1 0.000
    18 C       0.313214     0.528643     3.011090 C          1 UNL1 0.000
    19 C      -0.346515     0.532913     1.753382 C          1 UNL1 0.000
    20 C      -1.760134     0.539742     1.752122 C          1 UNL1 0.000
    21 C       0.359829     0.532871     0.508232 C          1 UNL1 0.000
    22 C      -0.341314     0.567466    -0.739228 C          1 UNL1 0.000
    23 C      -1.755080     0.573650    -0.743536 C          1 UNL1 0.000
    24 C      -2.452304     0.554409     0.502751 C          1 UNL1 0.000
    25 C       0.323733     0.597535    -1.993735 C          1 UNL1 0.000
    26 C      -0.364424     0.624887    -3.206854 C          1 UNL1 0.000
    27 C      -1.746699     0.624357    -3.205466 C          1 UNL1 0.000
    28 C      -2.429113     0.599640    -1.990976 C          1 UNL1 0.000
    29 H      -7.725467     3.255173     0.467028 H          1 UNL1 0.000
    30 H      -6.398170     5.322025     0.566812 H          1 UNL1 0.000
    31 H      -3.918122     5.191784     0.627873 H          1 UNL1 0.000
    32 H      -2.798007     3.042070     0.593735 H          1 UNL1 0.000
    33 H      -2.771455    -1.935372     0.542256 H          1 UNL1 0.000
    34 H      -3.867043    -4.098840     0.527079 H          1 UNL1 0.000
    35 H      -6.344916    -4.254846     0.456834 H          1 UNL1 0.000
    36 H      -7.694786    -2.201251     0.401075 H          1 UNL1 0.000
    37 H      -3.527797     0.539522     3.028063 H          1 UNL1 0.000
    38 H      -2.318494     0.522628     5.147569 H          1 UNL1 0.000
    39 H       0.165013     0.523869     5.161500 H          1 UNL1 0.000
    40 H       1.400907     0.546411     3.064150 H          1 UNL1 0.000
    41 H       1.411694     0.616329    -2.041305 H          1 UNL1 0.000
    42 H       0.184339     0.653594    -4.144099 H          1 UNL1 0.000
    43 H      -2.299184     0.649982    -4.140539 H          1 UNL1 0.000
    44 H      -3.517380     0.606310    -2.026678 H          1 UNL1 0.000
    45 C       1.835655     0.477052     0.511150 C          1 UNL1 0.000
    46 N       2.473317     1.673607     0.501257 N          1 UNL1 0.000
    47 C       3.823639     1.656390     0.508233 C          1 UNL1 0.000
    48 C       4.579934     0.496666     0.525468 C          1 UNL1 0.000
    49 C       3.913319    -0.722582     0.534902 C          1 UNL1 0.000
    50 C       2.521252    -0.737484     0.526937 C          1 UNL1 0.000
    51 H       4.297046     2.634086     0.499739 H          1 UNL1 0.000
    52 H       5.663164     0.543483     0.531541 H          1 UNL1 0.000
    53 H       4.471487    -1.654334     0.548982 H          1 UNL1 0.000
    54 H       1.979778    -1.678082     0.534913 H          1 UNL1 0.000
@<TRIPOS>BOND
     1      1      2   1
     2      1      3   1
     3      3      4   2
     4      4      5   1
     5      5      6   2
     6      6      7   1
     7      7      8   2
     8      8      3   1
     9      2      9   2
    10      9     10   1
    11     10     11   2
    12     11     12   1
    13     12     13   2
    14     13      2   1
    15      4     14   1
    16     14     13   1
    17     15     16   2
    18     16     17   1
    19     17     18   2
    20     18     19   1
    21     19     20   2
    22     20     15   1
    23     19     21   1
    24     21     22   2
    25     22     23   1
    26     23     24   2
    27     24     20   1
    28     22     25   1
    29     25     26   2
    30     26     27   1
    31     27     28   2
    32     28     23   1
    33      1     24   1
    34      5     29   1
    35      6     30   1
    36      7     31   1
    37      8     32   1
    38      9     33   1
    39     10     34   1
    40     11     35   1
    41     12     36   1
    42     15     37   1
    43     16     38   1
    44     17     39   1
    45     18     40   1
    46     25     41   1
    47     26     42   1
    48     27     43   1
    49     28     44   1
    50     45     46   2
    51     46     47   1
    52     47     48   2
    53     48     49   1
    54     49     50   2
    55     50     45   1
    56     47     51   1
    57     48     52   1
    58     49     53   1
    59     50     54   1
    60     21     45   1
