# Produced with molli package
@<TRIPOS>MOLECULE
H_3_K
57 63 0 0 0
SMALL
USER_CHARGES

@<TRIPOS>ATOM
     1 N      -3.911014     0.557388     0.502630 N          1 UNL1 0.000
     2 C      -4.604845    -0.716889     0.502749 C          1 UNL1 0.000
     3 C      -4.595749     1.836720     0.503257 C          1 UNL1 0.000
     4 C      -5.996119     1.948881     0.515323 C          1 UNL1 0.000
     5 C      -6.610982     3.217476     0.512538 C          1 UNL1 0.000
     6 C      -5.857327     4.387080     0.497941 C          1 UNL1 0.000
     7 C      -4.475732     4.301371     0.487143 C          1 UNL1 0.000
     8 C      -3.857773     3.047368     0.490394 C          1 UNL1 0.000
     9 C      -3.875526    -1.932683     0.488617 C          1 UNL1 0.000
    10 C      -4.502508    -3.182193     0.486516 C          1 UNL1 0.000
    11 C      -5.884696    -3.257990     0.498997 C          1 UNL1 0.000
    12 C      -6.629968    -2.083043     0.513795 C          1 UNL1 0.000
    13 C      -6.006007    -0.818943     0.515698 C          1 UNL1 0.000
    14 S      -7.105656     0.568931     0.537105 S          1 UNL1 0.000
    15 C      -2.423833     0.538023     2.990297 C          1 UNL1 0.000
    16 C      -1.741845     0.525419     4.204885 C          1 UNL1 0.000
    17 C      -0.359812     0.517173     4.206133 C          1 UNL1 0.000
    18 C       0.328431     0.524242     2.992631 C          1 UNL1 0.000
    19 C      -0.336005     0.541240     1.737256 C          1 UNL1 0.000
    20 C      -1.749839     0.544249     1.742704 C          1 UNL1 0.000
    21 C       0.364116     0.554265     0.487588 C          1 UNL1 0.000
    22 C      -0.344919     0.562908    -0.757314 C          1 UNL1 0.000
    23 C      -1.758583     0.558348    -0.753004 C          1 UNL1 0.000
    24 C      -2.448497     0.552582     0.497315 C          1 UNL1 0.000
    25 C       0.310577     0.577879    -2.017493 C          1 UNL1 0.000
    26 C      -0.385939     0.580457    -3.226212 C          1 UNL1 0.000
    27 C      -1.767829     0.570939    -3.215324 C          1 UNL1 0.000
    28 C      -2.441220     0.561423    -1.995969 C          1 UNL1 0.000
    29 H      -7.696622     3.300191     0.521846 H          1 UNL1 0.000
    30 H      -6.349214     5.355831     0.495427 H          1 UNL1 0.000
    31 H      -3.870370     5.204123     0.475855 H          1 UNL1 0.000
    32 H      -2.770805     3.042862     0.481320 H          1 UNL1 0.000
    33 H      -2.788555    -1.935777     0.478058 H          1 UNL1 0.000
    34 H      -3.903675    -4.089283     0.474952 H          1 UNL1 0.000
    35 H      -6.383533    -4.223181     0.497445 H          1 UNL1 0.000
    36 H      -7.716169    -2.157938     0.524001 H          1 UNL1 0.000
    37 H      -3.512289     0.542369     3.026515 H          1 UNL1 0.000
    38 H      -2.294664     0.520681     5.140281 H          1 UNL1 0.000
    39 H       0.187952     0.505271     5.144554 H          1 UNL1 0.000
    40 H       1.415609     0.515115     3.044200 H          1 UNL1 0.000
    41 H       1.397330     0.588017    -2.076943 H          1 UNL1 0.000
    42 H       0.155426     0.589886    -4.168351 H          1 UNL1 0.000
    43 H      -2.327151     0.572262    -4.146833 H          1 UNL1 0.000
    44 H      -3.529891     0.556196    -2.024604 H          1 UNL1 0.000
    45 C       1.846699     0.561695     0.481328 C          1 UNL1 0.000
    46 C       2.554891     1.772824     0.576849 C          1 UNL1 0.000
    47 C       3.952229     1.786990     0.568177 C          1 UNL1 0.000
    48 C       4.650723     0.578859     0.456141 C          1 UNL1 0.000
    49 C       3.965012    -0.637723     0.358458 C          1 UNL1 0.000
    50 C       2.567630    -0.640901     0.375205 C          1 UNL1 0.000
    51 N       6.116771     0.588620     0.439337 N          1 UNL1 0.000
    52 O       6.689521     1.620535     0.815543 O          1 UNL1 0.000
    53 O       6.693854    -0.436751     0.048949 O          1 UNL1 0.000
    54 H       2.011920     2.713579     0.659871 H          1 UNL1 0.000
    55 H       4.474700     2.738387     0.644259 H          1 UNL1 0.000
    56 H       4.497751    -1.582568     0.271634 H          1 UNL1 0.000
    57 H       2.034740    -1.588031     0.300187 H          1 UNL1 0.000
@<TRIPOS>BOND
     1      1      2   1
     2      1      3   1
     3      3      4   2
     4      4      5   1
     5      5      6   2
     6      6      7   1
     7      7      8   2
     8      8      3   1
     9      2      9   2
    10      9     10   1
    11     10     11   2
    12     11     12   1
    13     12     13   2
    14     13      2   1
    15      4     14   1
    16     14     13   1
    17     15     16   2
    18     16     17   1
    19     17     18   2
    20     18     19   1
    21     19     20   2
    22     20     15   1
    23     19     21   1
    24     21     22   2
    25     22     23   1
    26     23     24   2
    27     24     20   1
    28     22     25   1
    29     25     26   2
    30     26     27   1
    31     27     28   2
    32     28     23   1
    33      1     24   1
    34      5     29   1
    35      6     30   1
    36      7     31   1
    37      8     32   1
    38      9     33   1
    39     10     34   1
    40     11     35   1
    41     12     36   1
    42     15     37   1
    43     16     38   1
    44     17     39   1
    45     18     40   1
    46     25     41   1
    47     26     42   1
    48     27     43   1
    49     28     44   1
    50     45     46   2
    51     46     47   1
    52     47     48   2
    53     48     49   1
    54     49     50   2
    55     50     45   1
    56     51     52   2
    57     51     53   1
    58     48     51   1
    59     46     54   1
    60     47     55   1
    61     49     56   1
    62     50     57   1
    63     21     45   1
