# Produced with molli package
@<TRIPOS>MOLECULE
H_3_P
59 65 0 0 0
SMALL
USER_CHARGES

@<TRIPOS>ATOM
     1 N      -3.907545     0.515877     0.566335 N          1 UNL1 0.000
     2 C      -4.599898    -0.758956     0.539945 C          1 UNL1 0.000
     3 C      -4.594551     1.793999     0.574237 C          1 UNL1 0.000
     4 C      -5.995136     1.903323     0.599417 C          1 UNL1 0.000
     5 C      -6.613396     3.170182     0.583627 C          1 UNL1 0.000
     6 C      -5.862782     4.341159     0.546281 C          1 UNL1 0.000
     7 C      -4.480941     4.258488     0.531640 C          1 UNL1 0.000
     8 C      -3.859612     3.006088     0.548207 C          1 UNL1 0.000
     9 C      -3.869679    -1.972462     0.474830 C          1 UNL1 0.000
    10 C      -4.495389    -3.222023     0.438705 C          1 UNL1 0.000
    11 C      -5.877145    -3.300348     0.470030 C          1 UNL1 0.000
    12 C      -6.623261    -2.127821     0.538148 C          1 UNL1 0.000
    13 C      -6.000550    -0.863598     0.572353 C          1 UNL1 0.000
    14 S      -7.100662     0.521224     0.661746 S          1 UNL1 0.000
    15 C      -2.395455     0.429422     3.038747 C          1 UNL1 0.000
    16 C      -1.700554     0.384769     4.245533 C          1 UNL1 0.000
    17 C      -0.318330     0.382075     4.232363 C          1 UNL1 0.000
    18 C       0.356868     0.424767     3.012527 C          1 UNL1 0.000
    19 C      -0.320463     0.468419     1.765011 C          1 UNL1 0.000
    20 C      -1.734611     0.469828     1.784806 C          1 UNL1 0.000
    21 C       0.367902     0.512202     0.509634 C          1 UNL1 0.000
    22 C      -0.352433     0.548001    -0.727187 C          1 UNL1 0.000
    23 C      -1.766396     0.548426    -0.709601 C          1 UNL1 0.000
    24 C      -2.444738     0.512223     0.546951 C          1 UNL1 0.000
    25 C       0.291903     0.585051    -1.992025 C          1 UNL1 0.000
    26 C      -0.415396     0.622293    -3.193876 C          1 UNL1 0.000
    27 C      -1.797420     0.623427    -3.170689 C          1 UNL1 0.000
    28 C      -2.459800     0.586294    -1.945965 C          1 UNL1 0.000
    29 H      -7.699123     3.250252     0.600112 H          1 UNL1 0.000
    30 H      -6.357039     5.308564     0.531286 H          1 UNL1 0.000
    31 H      -3.877727     5.162370     0.505425 H          1 UNL1 0.000
    32 H      -2.772574     3.003727     0.534851 H          1 UNL1 0.000
    33 H      -2.782901    -1.973399     0.446795 H          1 UNL1 0.000
    34 H      -3.895519    -4.126911     0.385459 H          1 UNL1 0.000
    35 H      -6.374837    -4.265668     0.442290 H          1 UNL1 0.000
    36 H      -7.709016    -2.204603     0.564174 H          1 UNL1 0.000
    37 H      -3.483472     0.431382     3.085922 H          1 UNL1 0.000
    38 H      -2.242806     0.352462     5.186385 H          1 UNL1 0.000
    39 H       0.240562     0.347440     5.163530 H          1 UNL1 0.000
    40 H       1.445343     0.422087     3.051251 H          1 UNL1 0.000
    41 H       1.378748     0.584316    -2.058347 H          1 UNL1 0.000
    42 H       0.117847     0.649901    -4.140035 H          1 UNL1 0.000
    43 H      -2.365172     0.652619    -4.096458 H          1 UNL1 0.000
    44 H      -3.548699     0.587687    -1.964717 H          1 UNL1 0.000
    45 C       1.850334     0.536749     0.492414 C          1 UNL1 0.000
    46 C       2.591508    -0.657626     0.472971 C          1 UNL1 0.000
    47 C       3.988267    -0.628327     0.474203 C          1 UNL1 0.000
    48 C       4.649420     0.596460     0.478304 C          1 UNL1 0.000
    49 C       3.935562     1.791296     0.515536 C          1 UNL1 0.000
    50 C       2.540391     1.761134     0.513945 C          1 UNL1 0.000
    51 O       6.015625     0.624104     0.532046 O          1 UNL1 0.000
    52 C       6.558097     0.761115    -0.781339 C          1 UNL1 0.000
    53 H       2.077638    -1.616835     0.469650 H          1 UNL1 0.000
    54 H       4.554137    -1.555152     0.480166 H          1 UNL1 0.000
    55 H       4.460577     2.740998     0.554268 H          1 UNL1 0.000
    56 H       1.986658     2.697444     0.541715 H          1 UNL1 0.000
    57 H       7.623335     0.990197    -0.680852 H          1 UNL1 0.000
    58 H       6.089737     1.579798    -1.339605 H          1 UNL1 0.000
    59 H       6.460910    -0.179452    -1.333669 H          1 UNL1 0.000
@<TRIPOS>BOND
     1      1      2   1
     2      1      3   1
     3      3      4   2
     4      4      5   1
     5      5      6   2
     6      6      7   1
     7      7      8   2
     8      8      3   1
     9      2      9   2
    10      9     10   1
    11     10     11   2
    12     11     12   1
    13     12     13   2
    14     13      2   1
    15      4     14   1
    16     14     13   1
    17     15     16   2
    18     16     17   1
    19     17     18   2
    20     18     19   1
    21     19     20   2
    22     20     15   1
    23     19     21   1
    24     21     22   2
    25     22     23   1
    26     23     24   2
    27     24     20   1
    28     22     25   1
    29     25     26   2
    30     26     27   1
    31     27     28   2
    32     28     23   1
    33      1     24   1
    34      5     29   1
    35      6     30   1
    36      7     31   1
    37      8     32   1
    38      9     33   1
    39     10     34   1
    40     11     35   1
    41     12     36   1
    42     15     37   1
    43     16     38   1
    44     17     39   1
    45     18     40   1
    46     25     41   1
    47     26     42   1
    48     27     43   1
    49     28     44   1
    50     45     46   2
    51     46     47   1
    52     47     48   2
    53     48     49   1
    54     49     50   2
    55     50     45   1
    56     51     52   1
    57     48     51   1
    58     46     53   1
    59     47     54   1
    60     49     55   1
    61     50     56   1
    62     52     57   1
    63     52     58   1
    64     52     59   1
    65     21     45   1
