# Produced with molli package
@<TRIPOS>MOLECULE
H_3_M
56 62 0 0 0
SMALL
USER_CHARGES

@<TRIPOS>ATOM
     1 N      -3.881949     0.485641     0.511912 N          1 UNL1 0.000
     2 C      -4.568771    -0.791928     0.548173 C          1 UNL1 0.000
     3 C      -4.573791     1.761388     0.516944 C          1 UNL1 0.000
     4 C      -5.974632     1.866128     0.538194 C          1 UNL1 0.000
     5 C      -6.596342     3.131349     0.551072 C          1 UNL1 0.000
     6 C      -5.849126     4.305087     0.541982 C          1 UNL1 0.000
     7 C      -4.467312     4.226842     0.516941 C          1 UNL1 0.000
     8 C      -3.842632     2.976195     0.503527 C          1 UNL1 0.000
     9 C      -3.833116    -2.003630     0.566722 C          1 UNL1 0.000
    10 C      -4.453652    -3.255866     0.606802 C          1 UNL1 0.000
    11 C      -5.835425    -3.338573     0.628131 C          1 UNL1 0.000
    12 C      -6.586859    -2.167783     0.608461 C          1 UNL1 0.000
    13 C      -5.969464    -0.901086     0.569035 C          1 UNL1 0.000
    14 S      -7.076970     0.480438     0.546798 S          1 UNL1 0.000
    15 C      -2.363945     0.527720     2.982148 C          1 UNL1 0.000
    16 C      -1.667137     0.560364     4.187936 C          1 UNL1 0.000
    17 C      -0.285612     0.589499     4.171720 C          1 UNL1 0.000
    18 C       0.387082     0.581682     2.949766 C          1 UNL1 0.000
    19 C      -0.292523     0.543326     1.702979 C          1 UNL1 0.000
    20 C      -1.705766     0.519905     1.726026 C          1 UNL1 0.000
    21 C       0.393224     0.528000     0.445272 C          1 UNL1 0.000
    22 C      -0.329945     0.490378    -0.790196 C          1 UNL1 0.000
    23 C      -1.743875     0.472425    -0.768880 C          1 UNL1 0.000
    24 C      -2.419328     0.489941     0.489225 C          1 UNL1 0.000
    25 C       0.311651     0.469095    -2.057070 C          1 UNL1 0.000
    26 C      -0.398827     0.432117    -3.257144 C          1 UNL1 0.000
    27 C      -1.780696     0.415791    -3.230065 C          1 UNL1 0.000
    28 C      -2.440601     0.436527    -2.003299 C          1 UNL1 0.000
    29 H      -7.682314     3.208074     0.568811 H          1 UNL1 0.000
    30 H      -6.346161     5.271122     0.553557 H          1 UNL1 0.000
    31 H      -3.866802     5.132863     0.508559 H          1 UNL1 0.000
    32 H      -2.755801     2.977832     0.484360 H          1 UNL1 0.000
    33 H      -2.746158    -2.001084     0.552028 H          1 UNL1 0.000
    34 H      -3.850183    -4.159807     0.621607 H          1 UNL1 0.000
    35 H      -6.329192    -4.305864     0.659622 H          1 UNL1 0.000
    36 H      -7.672638    -2.247866     0.624641 H          1 UNL1 0.000
    37 H      -3.451597     0.506656     3.032279 H          1 UNL1 0.000
    38 H      -2.208132     0.563797     5.130148 H          1 UNL1 0.000
    39 H       0.274107     0.617690     5.102638 H          1 UNL1 0.000
    40 H       1.474717     0.606519     2.987299 H          1 UNL1 0.000
    41 H       1.397867     0.480458    -2.127964 H          1 UNL1 0.000
    42 H       0.131721     0.416057    -4.205337 H          1 UNL1 0.000
    43 H      -2.350337     0.386383    -4.154860 H          1 UNL1 0.000
    44 H      -3.529447     0.422198    -2.018997 H          1 UNL1 0.000
    45 C       1.875395     0.544676     0.426042 C          1 UNL1 0.000
    46 C       2.603834    -0.654714     0.483067 C          1 UNL1 0.000
    47 C       4.001588    -0.641305     0.485683 C          1 UNL1 0.000
    48 C       4.691060     0.573583     0.428821 C          1 UNL1 0.000
    49 C       3.976719     1.773876     0.365427 C          1 UNL1 0.000
    50 C       2.578651     1.758718     0.364376 C          1 UNL1 0.000
    51 C       6.124785     0.588222     0.439941 C          1 UNL1 0.000
    52 N       7.285044     0.599423     0.451223 N          1 UNL1 0.000
    53 H       2.078361    -1.607278     0.532145 H          1 UNL1 0.000
    54 H       4.543753    -1.583868     0.535919 H          1 UNL1 0.000
    55 H       4.499860     2.727430     0.320150 H          1 UNL1 0.000
    56 H       2.033999     2.700622     0.319384 H          1 UNL1 0.000
@<TRIPOS>BOND
     1      1      2   1
     2      1      3   1
     3      3      4   2
     4      4      5   1
     5      5      6   2
     6      6      7   1
     7      7      8   2
     8      8      3   1
     9      2      9   2
    10      9     10   1
    11     10     11   2
    12     11     12   1
    13     12     13   2
    14     13      2   1
    15      4     14   1
    16     14     13   1
    17     15     16   2
    18     16     17   1
    19     17     18   2
    20     18     19   1
    21     19     20   2
    22     20     15   1
    23     19     21   1
    24     21     22   2
    25     22     23   1
    26     23     24   2
    27     24     20   1
    28     22     25   1
    29     25     26   2
    30     26     27   1
    31     27     28   2
    32     28     23   1
    33      1     24   1
    34      5     29   1
    35      6     30   1
    36      7     31   1
    37      8     32   1
    38      9     33   1
    39     10     34   1
    40     11     35   1
    41     12     36   1
    42     15     37   1
    43     16     38   1
    44     17     39   1
    45     18     40   1
    46     25     41   1
    47     26     42   1
    48     27     43   1
    49     28     44   1
    50     45     46   2
    51     46     47   1
    52     47     48   2
    53     48     49   1
    54     49     50   2
    55     50     45   1
    56     51     52   3
    57     48     51   1
    58     46     53   1
    59     47     54   1
    60     49     55   1
    61     50     56   1
    62     21     45   1
