# Produced with molli package
@<TRIPOS>MOLECULE
H_3_Q
53 59 0 0 0
SMALL
USER_CHARGES

@<TRIPOS>ATOM
     1 N      -3.945689     0.522182     0.547359 N          1 UNL1 0.000
     2 C      -4.644392    -0.749169     0.586985 C          1 UNL1 0.000
     3 C      -4.624737     1.804087     0.552309 C          1 UNL1 0.000
     4 C      -6.023492     1.922618     0.609613 C          1 UNL1 0.000
     5 C      -6.632550     3.193891     0.617397 C          1 UNL1 0.000
     6 C      -5.874650     4.359783     0.568076 C          1 UNL1 0.000
     7 C      -4.494635     4.267604     0.509232 C          1 UNL1 0.000
     8 C      -3.882410     3.010887     0.501239 C          1 UNL1 0.000
     9 C      -3.920934    -1.968472     0.566539 C          1 UNL1 0.000
    10 C      -4.552344    -3.214999     0.612180 C          1 UNL1 0.000
    11 C      -5.933243    -3.284451     0.679599 C          1 UNL1 0.000
    12 C      -6.673020    -2.106062     0.697656 C          1 UNL1 0.000
    13 C      -6.044621    -0.844888     0.650531 C          1 UNL1 0.000
    14 S      -7.137619     0.548118     0.683087 S          1 UNL1 0.000
    15 C      -2.463773     0.546139     3.038151 C          1 UNL1 0.000
    16 C      -1.784278     0.550321     4.254143 C          1 UNL1 0.000
    17 C      -0.402668     0.515292     4.258606 C          1 UNL1 0.000
    18 C       0.287605     0.480476     3.046942 C          1 UNL1 0.000
    19 C      -0.374669     0.484152     1.790249 C          1 UNL1 0.000
    20 C      -1.787978     0.513004     1.791908 C          1 UNL1 0.000
    21 C       0.327751     0.461128     0.543181 C          1 UNL1 0.000
    22 C      -0.375944     0.453116    -0.703294 C          1 UNL1 0.000
    23 C      -1.789768     0.484022    -0.703711 C          1 UNL1 0.000
    24 C      -2.483242     0.509135     0.544359 C          1 UNL1 0.000
    25 C       0.284586     0.413487    -1.960211 C          1 UNL1 0.000
    26 C      -0.407933     0.421356    -3.171180 C          1 UNL1 0.000
    27 C      -1.789680     0.462285    -3.165476 C          1 UNL1 0.000
    28 C      -2.467815     0.489060    -1.948812 C          1 UNL1 0.000
    29 H      -7.716814     3.281567     0.664045 H          1 UNL1 0.000
    30 H      -6.362079     5.330733     0.576129 H          1 UNL1 0.000
    31 H      -3.886172     5.167450     0.469978 H          1 UNL1 0.000
    32 H      -2.796639     3.000592     0.453663 H          1 UNL1 0.000
    33 H      -2.834821    -1.977743     0.514513 H          1 UNL1 0.000
    34 H      -3.956971    -4.124402     0.595808 H          1 UNL1 0.000
    35 H      -6.434937    -4.247351     0.717860 H          1 UNL1 0.000
    36 H      -7.758268    -2.175934     0.750665 H          1 UNL1 0.000
    37 H      -3.551992     0.568940     3.072526 H          1 UNL1 0.000
    38 H      -2.338698     0.575436     5.188134 H          1 UNL1 0.000
    39 H       0.143506     0.509326     5.197899 H          1 UNL1 0.000
    40 H       1.374571     0.437068     3.101296 H          1 UNL1 0.000
    41 H       1.371178     0.362442    -2.015658 H          1 UNL1 0.000
    42 H       0.136512     0.389936    -4.111114 H          1 UNL1 0.000
    43 H      -2.345015     0.467062    -4.099346 H          1 UNL1 0.000
    44 H      -3.556179     0.513796    -1.980896 H          1 UNL1 0.000
    45 C       1.801269     0.471148     0.544683 C          1 UNL1 0.000
    46 N       2.417421    -0.736369     0.628882 N          1 UNL1 0.000
    47 C       3.769897    -0.708267     0.639853 C          1 UNL1 0.000
    48 C       4.490473     0.471734     0.568887 C          1 UNL1 0.000
    49 N       3.892929     1.680959     0.483404 N          1 UNL1 0.000
    50 C       2.537086     1.653334     0.474165 C          1 UNL1 0.000
    51 H       4.263631    -1.670885     0.709293 H          1 UNL1 0.000
    52 H       5.574491     0.475412     0.579766 H          1 UNL1 0.000
    53 H       2.049401     2.620375     0.408555 H          1 UNL1 0.000
@<TRIPOS>BOND
     1      1      2   1
     2      1      3   1
     3      3      4   2
     4      4      5   1
     5      5      6   2
     6      6      7   1
     7      7      8   2
     8      8      3   1
     9      2      9   2
    10      9     10   1
    11     10     11   2
    12     11     12   1
    13     12     13   2
    14     13      2   1
    15      4     14   1
    16     14     13   1
    17     15     16   2
    18     16     17   1
    19     17     18   2
    20     18     19   1
    21     19     20   2
    22     20     15   1
    23     19     21   1
    24     21     22   2
    25     22     23   1
    26     23     24   2
    27     24     20   1
    28     22     25   1
    29     25     26   2
    30     26     27   1
    31     27     28   2
    32     28     23   1
    33      1     24   1
    34      5     29   1
    35      6     30   1
    36      7     31   1
    37      8     32   1
    38      9     33   1
    39     10     34   1
    40     11     35   1
    41     12     36   1
    42     15     37   1
    43     16     38   1
    44     17     39   1
    45     18     40   1
    46     25     41   1
    47     26     42   1
    48     27     43   1
    49     28     44   1
    50     45     46   2
    51     46     47   1
    52     47     48   2
    53     48     49   1
    54     49     50   2
    55     50     45   1
    56     47     51   1
    57     48     52   1
    58     50     53   1
    59     21     45   1
