# Produced with molli package
@<TRIPOS>MOLECULE
H_3_T
58 64 0 0 0
SMALL
USER_CHARGES

@<TRIPOS>ATOM
     1 N      -3.914182     0.458547     0.564152 N          1 UNL1 0.000
     2 C      -4.611480    -0.813649     0.547935 C          1 UNL1 0.000
     3 C      -4.595340     1.739611     0.564749 C          1 UNL1 0.000
     4 C      -5.995275     1.855676     0.584384 C          1 UNL1 0.000
     5 C      -6.606507     3.126010     0.587179 C          1 UNL1 0.000
     6 C      -5.849545     4.293452     0.568749 C          1 UNL1 0.000
     7 C      -4.468313     4.203757     0.547295 C          1 UNL1 0.000
     8 C      -3.854001     2.948037     0.545538 C          1 UNL1 0.000
     9 C      -3.885862    -2.031241     0.516567 C          1 UNL1 0.000
    10 C      -4.516722    -3.278624     0.490120 C          1 UNL1 0.000
    11 C      -5.899198    -3.350529     0.497532 C          1 UNL1 0.000
    12 C      -6.640915    -2.173809     0.533476 C          1 UNL1 0.000
    13 C      -6.013009    -0.911850     0.558994 C          1 UNL1 0.000
    14 S      -7.108462     0.478672     0.612365 S          1 UNL1 0.000
    15 C      -2.463734     0.483192     3.074071 C          1 UNL1 0.000
    16 C      -1.799273     0.499232     4.298451 C          1 UNL1 0.000
    17 C      -0.417224     0.489249     4.319888 C          1 UNL1 0.000
    18 C       0.288483     0.465078     3.116689 C          1 UNL1 0.000
    19 C      -0.357803     0.454976     1.852196 C          1 UNL1 0.000
    20 C      -1.771722     0.462106     1.836438 C          1 UNL1 0.000
    21 C       0.361083     0.438863     0.613889 C          1 UNL1 0.000
    22 C      -0.329248     0.430918    -0.641335 C          1 UNL1 0.000
    23 C      -1.742733     0.434884    -0.659303 C          1 UNL1 0.000
    24 C      -2.451503     0.449941     0.580473 C          1 UNL1 0.000
    25 C       0.346375     0.422241    -1.890635 C          1 UNL1 0.000
    26 C      -0.330307     0.412673    -3.110356 C          1 UNL1 0.000
    27 C      -1.712328     0.413867    -3.121661 C          1 UNL1 0.000
    28 C      -2.405352     0.426086    -1.913193 C          1 UNL1 0.000
    29 H      -7.691761     3.211723     0.604369 H          1 UNL1 0.000
    30 H      -6.338452     5.263640     0.571139 H          1 UNL1 0.000
    31 H      -3.859972     5.104417     0.531949 H          1 UNL1 0.000
    32 H      -2.767005     2.940042     0.527339 H          1 UNL1 0.000
    33 H      -2.798737    -2.037226     0.508889 H          1 UNL1 0.000
    34 H      -3.920276    -4.186956     0.463157 H          1 UNL1 0.000
    35 H      -6.400820    -4.314013     0.476881 H          1 UNL1 0.000
    36 H      -7.727308    -2.245473     0.541861 H          1 UNL1 0.000
    37 H      -3.552473     0.489579     3.094119 H          1 UNL1 0.000
    38 H      -2.365349     0.518756     5.225527 H          1 UNL1 0.000
    39 H       0.117838     0.500126     5.265440 H          1 UNL1 0.000
    40 H       1.375548     0.455160     3.181330 H          1 UNL1 0.000
    41 H       1.434711     0.424312    -1.930121 H          1 UNL1 0.000
    42 H       0.227459     0.405337    -4.042701 H          1 UNL1 0.000
    43 H      -2.256210     0.406954    -4.062047 H          1 UNL1 0.000
    44 H      -3.493333     0.429278    -1.958778 H          1 UNL1 0.000
    45 C       1.843443     0.434231     0.627747 C          1 UNL1 0.000
    46 C       2.562802     1.636974     0.696967 C          1 UNL1 0.000
    47 C       3.960263     1.635002     0.691792 C          1 UNL1 0.000
    48 C       4.666453     0.430058     0.614044 C          1 UNL1 0.000
    49 C       3.954610    -0.773302     0.549305 C          1 UNL1 0.000
    50 C       2.557425    -0.771507     0.558369 C          1 UNL1 0.000
    51 C       6.166293     0.414089     0.594861 C          1 UNL1 0.000
    52 H       2.031657     2.585121     0.752878 H          1 UNL1 0.000
    53 H       4.490469     2.583114     0.745297 H          1 UNL1 0.000
    54 H       4.484666    -1.721218     0.487581 H          1 UNL1 0.000
    55 H       2.022761    -1.717638     0.502904 H          1 UNL1 0.000
    56 H       6.526030    -0.044076    -0.332125 H          1 UNL1 0.000
    57 H       6.548826    -0.152944     1.449493 H          1 UNL1 0.000
    58 H       6.579780     1.426436     0.650850 H          1 UNL1 0.000
@<TRIPOS>BOND
     1      1      2   1
     2      1      3   1
     3      3      4   2
     4      4      5   1
     5      5      6   2
     6      6      7   1
     7      7      8   2
     8      8      3   1
     9      2      9   2
    10      9     10   1
    11     10     11   2
    12     11     12   1
    13     12     13   2
    14     13      2   1
    15      4     14   1
    16     14     13   1
    17     15     16   2
    18     16     17   1
    19     17     18   2
    20     18     19   1
    21     19     20   2
    22     20     15   1
    23     19     21   1
    24     21     22   2
    25     22     23   1
    26     23     24   2
    27     24     20   1
    28     22     25   1
    29     25     26   2
    30     26     27   1
    31     27     28   2
    32     28     23   1
    33      1     24   1
    34      5     29   1
    35      6     30   1
    36      7     31   1
    37      8     32   1
    38      9     33   1
    39     10     34   1
    40     11     35   1
    41     12     36   1
    42     15     37   1
    43     16     38   1
    44     17     39   1
    45     18     40   1
    46     25     41   1
    47     26     42   1
    48     27     43   1
    49     28     44   1
    50     45     46   2
    51     46     47   1
    52     47     48   2
    53     48     49   1
    54     49     50   2
    55     50     45   1
    56     48     51   1
    57     46     52   1
    58     47     53   1
    59     49     54   1
    60     50     55   1
    61     51     56   1
    62     51     57   1
    63     51     58   1
    64     21     45   1
