# Produced with molli package
@<TRIPOS>MOLECULE
H_3_L
59 66 0 0 0
SMALL
USER_CHARGES

@<TRIPOS>ATOM
     1 N      -3.815618     0.485212     0.496903 N          1 UNL1 0.000
     2 C      -4.519100    -0.782638     0.446200 C          1 UNL1 0.000
     3 C      -4.489532     1.770230     0.492348 C          1 UNL1 0.000
     4 C      -5.888410     1.894340     0.451017 C          1 UNL1 0.000
     5 C      -6.492548     3.168123     0.438657 C          1 UNL1 0.000
     6 C      -5.729554     4.331357     0.468054 C          1 UNL1 0.000
     7 C      -4.349376     4.233837     0.512744 C          1 UNL1 0.000
     8 C      -3.742038     2.974579     0.525271 C          1 UNL1 0.000
     9 C      -3.799265    -2.004090     0.438520 C          1 UNL1 0.000
    10 C      -4.434601    -3.247366     0.370365 C          1 UNL1 0.000
    11 C      -5.816199    -3.311161     0.311743 C          1 UNL1 0.000
    12 C      -6.552675    -2.130628     0.326771 C          1 UNL1 0.000
    13 C      -5.920130    -0.872654     0.394892 C          1 UNL1 0.000
    14 S      -7.009129     0.523777     0.408168 S          1 UNL1 0.000
    15 C      -2.325878     0.453589     2.986501 C          1 UNL1 0.000
    16 C      -1.641237     0.441432     4.200000 C          1 UNL1 0.000
    17 C      -0.258770     0.433936     4.198963 C          1 UNL1 0.000
    18 C       0.427549     0.439767     2.984447 C          1 UNL1 0.000
    19 C      -0.239519     0.451516     1.731014 C          1 UNL1 0.000
    20 C      -1.653658     0.457845     1.738042 C          1 UNL1 0.000
    21 C       0.459329     0.456315     0.481422 C          1 UNL1 0.000
    22 C      -0.250341     0.450725    -0.762684 C          1 UNL1 0.000
    23 C      -1.663599     0.459935    -0.758216 C          1 UNL1 0.000
    24 C      -2.352867     0.468296     0.492945 C          1 UNL1 0.000
    25 C       0.405754     0.435974    -2.022318 C          1 UNL1 0.000
    26 C      -0.289893     0.428758    -3.231332 C          1 UNL1 0.000
    27 C      -1.671737     0.441632    -3.221133 C          1 UNL1 0.000
    28 C      -2.345414     0.459179    -2.001991 C          1 UNL1 0.000
    29 H      -7.576914     3.259850     0.404063 H          1 UNL1 0.000
    30 H      -6.212993     5.304236     0.456022 H          1 UNL1 0.000
    31 H      -3.736504     5.131239     0.536866 H          1 UNL1 0.000
    32 H      -2.655529     2.960505     0.560153 H          1 UNL1 0.000
    33 H      -2.712991    -2.016291     0.482363 H          1 UNL1 0.000
    34 H      -3.842051    -4.158587     0.361613 H          1 UNL1 0.000
    35 H      -6.321196    -4.271427     0.255738 H          1 UNL1 0.000
    36 H      -7.638571    -2.196106     0.282789 H          1 UNL1 0.000
    37 H      -3.414231     0.458042     3.023351 H          1 UNL1 0.000
    38 H      -2.191759     0.436578     5.136608 H          1 UNL1 0.000
    39 H       0.291772     0.422190     5.135633 H          1 UNL1 0.000
    40 H       1.515680     0.430967     3.030962 H          1 UNL1 0.000
    41 H       1.493360     0.425283    -2.078701 H          1 UNL1 0.000
    42 H       0.253148     0.412589    -4.172161 H          1 UNL1 0.000
    43 H      -2.230635     0.436681    -4.152638 H          1 UNL1 0.000
    44 H      -3.433830     0.469042    -2.031439 H          1 UNL1 0.000
    45 C       1.942192     0.479724     0.471057 C          1 UNL1 0.000
    46 C       2.630004     1.703128     0.474765 C          1 UNL1 0.000
    47 C       4.027654     1.762569     0.444342 C          1 UNL1 0.000
    48 C       4.723670     0.550492     0.407569 C          1 UNL1 0.000
    49 C       4.082162    -0.687557     0.406475 C          1 UNL1 0.000
    50 C       2.674336    -0.723003     0.441517 C          1 UNL1 0.000
    51 N       6.077864     0.304669     0.365123 N          1 UNL1 0.000
    52 C       6.313327    -1.044326     0.336135 C          1 UNL1 0.000
    53 C       5.095431    -1.684546     0.362589 C          1 UNL1 0.000
    54 H       2.066659     2.635087     0.497028 H          1 UNL1 0.000
    55 H       4.543320     2.717157     0.444358 H          1 UNL1 0.000
    56 H       2.157028    -1.678896     0.437144 H          1 UNL1 0.000
    57 H       6.790028     1.021586     0.353840 H          1 UNL1 0.000
    58 H       7.322921    -1.430666     0.298680 H          1 UNL1 0.000
    59 H       4.945454    -2.756088     0.348858 H          1 UNL1 0.000
@<TRIPOS>BOND
     1      1      2   1
     2      1      3   1
     3      3      4   2
     4      4      5   1
     5      5      6   2
     6      6      7   1
     7      7      8   2
     8      8      3   1
     9      2      9   2
    10      9     10   1
    11     10     11   2
    12     11     12   1
    13     12     13   2
    14     13      2   1
    15      4     14   1
    16     14     13   1
    17     15     16   2
    18     16     17   1
    19     17     18   2
    20     18     19   1
    21     19     20   2
    22     20     15   1
    23     19     21   1
    24     21     22   2
    25     22     23   1
    26     23     24   2
    27     24     20   1
    28     22     25   1
    29     25     26   2
    30     26     27   1
    31     27     28   2
    32     28     23   1
    33      1     24   1
    34      5     29   1
    35      6     30   1
    36      7     31   1
    37      8     32   1
    38      9     33   1
    39     10     34   1
    40     11     35   1
    41     12     36   1
    42     15     37   1
    43     16     38   1
    44     17     39   1
    45     18     40   1
    46     25     41   1
    47     26     42   1
    48     27     43   1
    49     28     44   1
    50     45     46   2
    51     46     47   1
    52     47     48   2
    53     48     49   1
    54     49     50   2
    55     50     45   1
    56     48     51   1
    57     51     52   1
    58     52     53   2
    59     53     49   1
    60     46     54   1
    61     47     55   1
    62     50     56   1
    63     51     57   1
    64     52     58   1
    65     53     59   1
    66     21     45   1
