# Produced with molli package
@<TRIPOS>MOLECULE
H_4_K
49 53 0 0 0
SMALL
USER_CHARGES

@<TRIPOS>ATOM
     1 N      -3.072686     0.505791     1.715500 N          1 UNL1 0.000
     2 C      -3.773520    -0.763117     1.705568 C          1 UNL1 0.000
     3 C      -3.752085     1.786899     1.741676 C          1 UNL1 0.000
     4 C      -5.152298     1.906802     1.739051 C          1 UNL1 0.000
     5 C      -5.761831     3.178044     1.767545 C          1 UNL1 0.000
     6 C      -5.003417     4.344043     1.798481 C          1 UNL1 0.000
     7 C      -3.622313     4.252067     1.799583 C          1 UNL1 0.000
     8 C      -3.009780     2.995325     1.770733 C          1 UNL1 0.000
     9 C      -3.051978    -1.984108     1.706091 C          1 UNL1 0.000
    10 C      -3.686524    -3.230403     1.697483 C          1 UNL1 0.000
    11 C      -5.069201    -3.298391     1.688395 C          1 UNL1 0.000
    12 C      -5.807360    -2.119173     1.688424 C          1 UNL1 0.000
    13 C      -5.175784    -0.858593     1.697515 C          1 UNL1 0.000
    14 S      -6.269664     0.533891     1.694607 S          1 UNL1 0.000
    15 C      -1.633172     0.496039     1.691141 C          1 UNL1 0.000
    16 C      -0.905148     0.519755     2.889192 C          1 UNL1 0.000
    17 C       0.485172     0.525327     2.844896 C          1 UNL1 0.000
    18 C       1.162311     0.537981     1.626363 C          1 UNL1 0.000
    19 C       0.452295     0.506479     0.417941 C          1 UNL1 0.000
    20 C      -0.949610     0.483016     0.461387 C          1 UNL1 0.000
    21 O       1.215427     0.603120     3.998856 O          1 UNL1 0.000
    22 C       1.373209    -0.695407     4.570702 C          1 UNL1 0.000
    23 H      -6.847204     3.265345     1.765593 H          1 UNL1 0.000
    24 H      -5.491355     5.314527     1.821393 H          1 UNL1 0.000
    25 H      -3.013241     5.152069     1.824266 H          1 UNL1 0.000
    26 H      -1.922778     2.987164     1.774523 H          1 UNL1 0.000
    27 H      -1.965294    -1.993034     1.714748 H          1 UNL1 0.000
    28 H      -3.094279    -4.141807     1.698156 H          1 UNL1 0.000
    29 H      -5.574472    -4.260278     1.681502 H          1 UNL1 0.000
    30 H      -6.894160    -2.187241     1.681194 H          1 UNL1 0.000
    31 H      -1.425169     0.549988     3.842158 H          1 UNL1 0.000
    32 H       2.249368     0.577168     1.623057 H          1 UNL1 0.000
    33 H      -1.524547     0.466694    -0.462896 H          1 UNL1 0.000
    34 H       2.111819    -0.619155     5.374329 H          1 UNL1 0.000
    35 H       1.747715    -1.418178     3.836458 H          1 UNL1 0.000
    36 H       0.430694    -1.045277     5.004322 H          1 UNL1 0.000
    37 C       1.167962     0.512071    -0.858709 C          1 UNL1 0.000
    38 C       1.429184     1.721000    -1.524211 C          1 UNL1 0.000
    39 C       2.142404     1.737031    -2.726179 C          1 UNL1 0.000
    40 C       2.595540     0.530643    -3.271936 C          1 UNL1 0.000
    41 C       2.337463    -0.685913    -2.629251 C          1 UNL1 0.000
    42 C       1.626680    -0.688310    -1.425578 C          1 UNL1 0.000
    43 N       3.355138     0.540828    -4.525775 N          1 UNL1 0.000
    44 O       3.816998     1.625840    -4.909268 O          1 UNL1 0.000
    45 O       3.492483    -0.534813    -5.124234 O          1 UNL1 0.000
    46 H       1.082638     2.661769    -1.098375 H          1 UNL1 0.000
    47 H       2.335744     2.688692    -3.216979 H          1 UNL1 0.000
    48 H       2.685707    -1.629824    -3.043303 H          1 UNL1 0.000
    49 H       1.434067    -1.635434    -0.923679 H          1 UNL1 0.000
@<TRIPOS>BOND
     1      1      2   1
     2      1      3   1
     3      3      4   2
     4      4      5   1
     5      5      6   2
     6      6      7   1
     7      7      8   2
     8      8      3   1
     9      2      9   2
    10      9     10   1
    11     10     11   2
    12     11     12   1
    13     12     13   2
    14     13      2   1
    15      4     14   1
    16     14     13   1
    17     15     16   2
    18     16     17   1
    19     17     18   2
    20     18     19   1
    21     19     20   2
    22     20     15   1
    23     21     22   1
    24     17     21   1
    25      1     15   1
    26      5     23   1
    27      6     24   1
    28      7     25   1
    29      8     26   1
    30      9     27   1
    31     10     28   1
    32     11     29   1
    33     12     30   1
    34     16     31   1
    35     18     32   1
    36     20     33   1
    37     22     34   1
    38     22     35   1
    39     22     36   1
    40     37     38   2
    41     38     39   1
    42     39     40   2
    43     40     41   1
    44     41     42   2
    45     42     37   1
    46     43     44   2
    47     43     45   1
    48     40     43   1
    49     38     46   1
    50     39     47   1
    51     41     48   1
    52     42     49   1
    53     19     37   1
