# Produced with molli package
@<TRIPOS>MOLECULE
H_4_T
50 54 0 0 0
SMALL
USER_CHARGES

@<TRIPOS>ATOM
     1 N      -3.093092     0.439010     1.769852 N          1 UNL1 0.000
     2 C      -3.778297    -0.838359     1.753029 C          1 UNL1 0.000
     3 C      -3.787752     1.711351     1.806162 C          1 UNL1 0.000
     4 C      -5.188820     1.813614     1.841642 C          1 UNL1 0.000
     5 C      -5.813489     3.077354     1.877514 C          1 UNL1 0.000
     6 C      -5.069275     4.252952     1.877806 C          1 UNL1 0.000
     7 C      -3.687665     4.178217     1.841073 C          1 UNL1 0.000
     8 C      -3.060212     2.929029     1.805195 C          1 UNL1 0.000
     9 C      -3.042091    -2.049820     1.708469 C          1 UNL1 0.000
    10 C      -3.661244    -3.303748     1.689645 C          1 UNL1 0.000
    11 C      -5.042598    -3.389363     1.716326 C          1 UNL1 0.000
    12 C      -5.794950    -2.219963     1.762360 C          1 UNL1 0.000
    13 C      -5.178856    -0.951708     1.781231 C          1 UNL1 0.000
    14 S      -6.289346     0.426250     1.846147 S          1 UNL1 0.000
    15 C      -1.653446     0.446450     1.751719 C          1 UNL1 0.000
    16 C      -0.933048     0.476702     2.954271 C          1 UNL1 0.000
    17 C       0.457853     0.491105     2.920619 C          1 UNL1 0.000
    18 C       1.141755     0.506206     1.705822 C          1 UNL1 0.000
    19 C       0.440069     0.468304     0.492319 C          1 UNL1 0.000
    20 C      -0.961926     0.438289     0.526582 C          1 UNL1 0.000
    21 O       1.190461     0.571106     4.073324 O          1 UNL1 0.000
    22 C       1.210197    -0.690116     4.741282 C          1 UNL1 0.000
    23 H      -6.899405     3.150940     1.905839 H          1 UNL1 0.000
    24 H      -5.568570     5.217453     1.906264 H          1 UNL1 0.000
    25 H      -3.089161     5.085607     1.840462 H          1 UNL1 0.000
    26 H      -1.973452     2.933890     1.776160 H          1 UNL1 0.000
    27 H      -1.955483    -2.044892     1.685341 H          1 UNL1 0.000
    28 H      -3.057423    -4.206796     1.653094 H          1 UNL1 0.000
    29 H      -5.535825    -4.357349     1.701592 H          1 UNL1 0.000
    30 H      -6.880498    -2.301799     1.783914 H          1 UNL1 0.000
    31 H      -1.461871     0.506083     3.902380 H          1 UNL1 0.000
    32 H       2.228600     0.550322     1.707069 H          1 UNL1 0.000
    33 H      -1.528640     0.413745    -0.402509 H          1 UNL1 0.000
    34 H       1.937544    -0.624871     5.556098 H          1 UNL1 0.000
    35 H       1.529016    -1.494354     4.068115 H          1 UNL1 0.000
    36 H       0.232177    -0.919938     5.176282 H          1 UNL1 0.000
    37 C       1.164238     0.466276    -0.780282 C          1 UNL1 0.000
    38 C       1.751082    -0.710070    -1.267026 C          1 UNL1 0.000
    39 C       2.466755    -0.709694    -2.467950 C          1 UNL1 0.000
    40 C       2.611702     0.469936    -3.204634 C          1 UNL1 0.000
    41 C       2.023359     1.646153    -2.726603 C          1 UNL1 0.000
    42 C       1.305151     1.643250    -1.527310 C          1 UNL1 0.000
    43 C       3.389436     0.489119    -4.486952 C          1 UNL1 0.000
    44 H       1.654308    -1.638604    -0.708384 H          1 UNL1 0.000
    45 H       2.912018    -1.637720    -2.818745 H          1 UNL1 0.000
    46 H       2.125158     2.575309    -3.282789 H          1 UNL1 0.000
    47 H       0.864115     2.571630    -1.170457 H          1 UNL1 0.000
    48 H       4.236671     1.177410    -4.402894 H          1 UNL1 0.000
    49 H       2.746658     0.807449    -5.313787 H          1 UNL1 0.000
    50 H       3.785671    -0.501931    -4.731468 H          1 UNL1 0.000
@<TRIPOS>BOND
     1      1      2   1
     2      1      3   1
     3      3      4   2
     4      4      5   1
     5      5      6   2
     6      6      7   1
     7      7      8   2
     8      8      3   1
     9      2      9   2
    10      9     10   1
    11     10     11   2
    12     11     12   1
    13     12     13   2
    14     13      2   1
    15      4     14   1
    16     14     13   1
    17     15     16   2
    18     16     17   1
    19     17     18   2
    20     18     19   1
    21     19     20   2
    22     20     15   1
    23     21     22   1
    24     17     21   1
    25      1     15   1
    26      5     23   1
    27      6     24   1
    28      7     25   1
    29      8     26   1
    30      9     27   1
    31     10     28   1
    32     11     29   1
    33     12     30   1
    34     16     31   1
    35     18     32   1
    36     20     33   1
    37     22     34   1
    38     22     35   1
    39     22     36   1
    40     37     38   2
    41     38     39   1
    42     39     40   2
    43     40     41   1
    44     41     42   2
    45     42     37   1
    46     40     43   1
    47     38     44   1
    48     39     45   1
    49     41     46   1
    50     42     47   1
    51     43     48   1
    52     43     49   1
    53     43     50   1
    54     19     37   1
