# Produced with molli package
@<TRIPOS>MOLECULE
H_4_L
51 56 0 0 0
SMALL
USER_CHARGES

@<TRIPOS>ATOM
     1 N      -3.105602     0.457876     1.814502 N          1 UNL1 0.000
     2 C      -3.792120    -0.818243     1.843696 C          1 UNL1 0.000
     3 C      -3.798600     1.731856     1.818351 C          1 UNL1 0.000
     4 C      -5.199922     1.836689     1.842825 C          1 UNL1 0.000
     5 C      -5.823315     3.101614     1.851093 C          1 UNL1 0.000
     6 C      -5.077745     4.276134     1.834691 C          1 UNL1 0.000
     7 C      -3.695933     4.198907     1.807642 C          1 UNL1 0.000
     8 C      -3.069715     2.948457     1.798993 C          1 UNL1 0.000
     9 C      -3.056813    -2.031027     1.847950 C          1 UNL1 0.000
    10 C      -3.676711    -3.284048     1.881968 C          1 UNL1 0.000
    11 C      -5.058233    -3.367310     1.911201 C          1 UNL1 0.000
    12 C      -5.809783    -2.196512     1.904307 C          1 UNL1 0.000
    13 C      -5.192877    -0.929104     1.870632 C          1 UNL1 0.000
    14 S      -6.302439     0.450996     1.864546 S          1 UNL1 0.000
    15 C      -1.665787     0.462242     1.794488 C          1 UNL1 0.000
    16 C      -0.943244     0.482642     2.995838 C          1 UNL1 0.000
    17 C       0.447153     0.497708     2.957365 C          1 UNL1 0.000
    18 C       1.128126     0.531382     1.741432 C          1 UNL1 0.000
    19 C       0.425745     0.499868     0.527697 C          1 UNL1 0.000
    20 C      -0.976817     0.459621     0.567696 C          1 UNL1 0.000
    21 O       1.182653     0.546715     4.109778 O          1 UNL1 0.000
    22 C       1.232714    -0.742937     4.720532 C          1 UNL1 0.000
    23 H      -6.909330     3.177046     1.871029 H          1 UNL1 0.000
    24 H      -5.575811     5.241643     1.842538 H          1 UNL1 0.000
    25 H      -3.096299     5.105466     1.793643 H          1 UNL1 0.000
    26 H      -1.982686     2.951709     1.777510 H          1 UNL1 0.000
    27 H      -1.970152    -2.027566     1.824768 H          1 UNL1 0.000
    28 H      -3.073539    -4.188192     1.885406 H          1 UNL1 0.000
    29 H      -5.552201    -4.334590     1.938354 H          1 UNL1 0.000
    30 H      -6.895510    -2.276507     1.925854 H          1 UNL1 0.000
    31 H      -1.468581     0.499955     3.945939 H          1 UNL1 0.000
    32 H       2.215427     0.568596     1.743262 H          1 UNL1 0.000
    33 H      -1.547473     0.448648    -0.359335 H          1 UNL1 0.000
    34 H       2.040570    -0.732115     5.458407 H          1 UNL1 0.000
    35 H       1.453631    -1.532463     3.992283 H          1 UNL1 0.000
    36 H       0.294872    -0.957715     5.242661 H          1 UNL1 0.000
    37 C       1.148225     0.515793    -0.749222 C          1 UNL1 0.000
    38 C       1.131155    -0.602139    -1.595740 C          1 UNL1 0.000
    39 C       1.832044    -0.622933    -2.808310 C          1 UNL1 0.000
    40 C       2.553384     0.523230    -3.156284 C          1 UNL1 0.000
    41 C       2.594094     1.659240    -2.350129 C          1 UNL1 0.000
    42 C       1.885151     1.652419    -1.132817 C          1 UNL1 0.000
    43 N       3.323876     0.787352    -4.266688 N          1 UNL1 0.000
    44 C       3.843821     2.052797    -4.191292 C          1 UNL1 0.000
    45 C       3.408427     2.617224    -3.014570 C          1 UNL1 0.000
    46 H       0.570888    -1.489568    -1.304925 H          1 UNL1 0.000
    47 H       1.813296    -1.500331    -3.446025 H          1 UNL1 0.000
    48 H       1.908002     2.532253    -0.495009 H          1 UNL1 0.000
    49 H       3.477749     0.137908    -5.024712 H          1 UNL1 0.000
    50 H       4.476119     2.440648    -4.978633 H          1 UNL1 0.000
    51 H       3.647885     3.612958    -2.664978 H          1 UNL1 0.000
@<TRIPOS>BOND
     1      1      2   1
     2      1      3   1
     3      3      4   2
     4      4      5   1
     5      5      6   2
     6      6      7   1
     7      7      8   2
     8      8      3   1
     9      2      9   2
    10      9     10   1
    11     10     11   2
    12     11     12   1
    13     12     13   2
    14     13      2   1
    15      4     14   1
    16     14     13   1
    17     15     16   2
    18     16     17   1
    19     17     18   2
    20     18     19   1
    21     19     20   2
    22     20     15   1
    23     21     22   1
    24     17     21   1
    25      1     15   1
    26      5     23   1
    27      6     24   1
    28      7     25   1
    29      8     26   1
    30      9     27   1
    31     10     28   1
    32     11     29   1
    33     12     30   1
    34     16     31   1
    35     18     32   1
    36     20     33   1
    37     22     34   1
    38     22     35   1
    39     22     36   1
    40     37     38   2
    41     38     39   1
    42     39     40   2
    43     40     41   1
    44     41     42   2
    45     42     37   1
    46     40     43   1
    47     43     44   1
    48     44     45   2
    49     45     41   1
    50     38     46   1
    51     39     47   1
    52     42     48   1
    53     43     49   1
    54     44     50   1
    55     45     51   1
    56     19     37   1
