# Produced with molli package
@<TRIPOS>MOLECULE
H_4_R
48 52 0 0 0
SMALL
USER_CHARGES

@<TRIPOS>ATOM
     1 N      -3.126980     0.454453     1.789550 N          1 UNL1 0.000
     2 C      -3.799383    -0.829051     1.821176 C          1 UNL1 0.000
     3 C      -3.836987     1.719180     1.788639 C          1 UNL1 0.000
     4 C      -5.237154     1.805929     1.704761 C          1 UNL1 0.000
     5 C      -5.878393     3.061609     1.713832 C          1 UNL1 0.000
     6 C      -5.152022     4.244394     1.810022 C          1 UNL1 0.000
     7 C      -3.771561     4.185014     1.893821 C          1 UNL1 0.000
     8 C      -3.127492     2.943850     1.880444 C          1 UNL1 0.000
     9 C      -3.054469    -2.030054     1.933666 C          1 UNL1 0.000
    10 C      -3.664155    -3.287551     1.988996 C          1 UNL1 0.000
    11 C      -5.043684    -3.387340     1.925879 C          1 UNL1 0.000
    12 C      -5.803797    -2.228724     1.802608 C          1 UNL1 0.000
    13 C      -5.197498    -0.957133     1.749583 C          1 UNL1 0.000
    14 S      -6.313211     0.406321     1.565974 S          1 UNL1 0.000
    15 C      -1.687574     0.478712     1.773850 C          1 UNL1 0.000
    16 C      -0.967501     0.502803     2.975961 C          1 UNL1 0.000
    17 C       0.421706     0.548650     2.940119 C          1 UNL1 0.000
    18 C       1.101746     0.619029     1.724435 C          1 UNL1 0.000
    19 C       0.406472     0.588764     0.503604 C          1 UNL1 0.000
    20 C      -0.996239     0.503772     0.548718 C          1 UNL1 0.000
    21 O       1.167334     0.595084     4.086351 O          1 UNL1 0.000
    22 C       1.114108    -0.654549     4.775731 C          1 UNL1 0.000
    23 H      -6.963291     3.123009     1.644832 H          1 UNL1 0.000
    24 H      -5.664156     5.202535     1.818481 H          1 UNL1 0.000
    25 H      -3.187582     5.098481     1.971356 H          1 UNL1 0.000
    26 H      -2.043115     2.960438     1.952154 H          1 UNL1 0.000
    27 H      -1.968850    -2.013936     1.983306 H          1 UNL1 0.000
    28 H      -3.054355    -4.182750     2.079455 H          1 UNL1 0.000
    29 H      -5.528933    -4.358584     1.966324 H          1 UNL1 0.000
    30 H      -6.887095    -2.321898     1.744737 H          1 UNL1 0.000
    31 H      -1.497670     0.499766     3.923573 H          1 UNL1 0.000
    32 H       2.188276     0.668042     1.740891 H          1 UNL1 0.000
    33 H      -1.565782     0.472804    -0.379507 H          1 UNL1 0.000
    34 H       1.874158    -0.634107     5.562515 H          1 UNL1 0.000
    35 H       1.345179    -1.491170     4.105881 H          1 UNL1 0.000
    36 H       0.138494    -0.801244     5.249853 H          1 UNL1 0.000
    37 C       1.122502     0.632147    -0.780109 C          1 UNL1 0.000
    38 N       0.714464    -0.265223    -1.715754 N          1 UNL1 0.000
    39 C       1.378272    -0.297766    -2.899155 C          1 UNL1 0.000
    40 C       2.438534     0.542309    -3.192337 C          1 UNL1 0.000
    41 C       2.844486     1.477863    -2.242341 C          1 UNL1 0.000
    42 C       2.173805     1.521475    -1.019644 C          1 UNL1 0.000
    43 N       3.118097     0.432499    -4.471834 N          1 UNL1 0.000
    44 O       4.233842     0.960905    -4.574018 O          1 UNL1 0.000
    45 O       2.542068    -0.183757    -5.378661 O          1 UNL1 0.000
    46 H       1.016319    -1.047789    -3.598239 H          1 UNL1 0.000
    47 H       3.665071     2.165190    -2.433157 H          1 UNL1 0.000
    48 H       2.469839     2.247221    -0.267134 H          1 UNL1 0.000
@<TRIPOS>BOND
     1      1      2   1
     2      1      3   1
     3      3      4   2
     4      4      5   1
     5      5      6   2
     6      6      7   1
     7      7      8   2
     8      8      3   1
     9      2      9   2
    10      9     10   1
    11     10     11   2
    12     11     12   1
    13     12     13   2
    14     13      2   1
    15      4     14   1
    16     14     13   1
    17     15     16   2
    18     16     17   1
    19     17     18   2
    20     18     19   1
    21     19     20   2
    22     20     15   1
    23     21     22   1
    24     17     21   1
    25      1     15   1
    26      5     23   1
    27      6     24   1
    28      7     25   1
    29      8     26   1
    30      9     27   1
    31     10     28   1
    32     11     29   1
    33     12     30   1
    34     16     31   1
    35     18     32   1
    36     20     33   1
    37     22     34   1
    38     22     35   1
    39     22     36   1
    40     37     38   2
    41     38     39   1
    42     39     40   2
    43     40     41   1
    44     41     42   2
    45     42     37   1
    46     43     44   2
    47     43     45   1
    48     40     43   1
    49     39     46   1
    50     41     47   1
    51     42     48   1
    52     19     37   1
