# Produced with molli package
@<TRIPOS>MOLECULE
H_4_N
44 48 0 0 0
SMALL
USER_CHARGES

@<TRIPOS>ATOM
     1 N      -3.227107     0.525002     1.849364 N          1 UNL1 0.000
     2 C      -3.898704    -0.758992     1.807428 C          1 UNL1 0.000
     3 C      -3.935672     1.790481     1.865967 C          1 UNL1 0.000
     4 C      -5.338251     1.878522     1.845023 C          1 UNL1 0.000
     5 C      -5.977187     3.135589     1.860422 C          1 UNL1 0.000
     6 C      -5.246191     4.318761     1.896013 C          1 UNL1 0.000
     7 C      -3.863451     4.258234     1.915823 C          1 UNL1 0.000
     8 C      -3.221789     3.015659     1.900454 C          1 UNL1 0.000
     9 C      -3.149186    -1.963101     1.798593 C          1 UNL1 0.000
    10 C      -3.754066    -3.222955     1.750478 C          1 UNL1 0.000
    11 C      -5.134285    -3.322109     1.712351 C          1 UNL1 0.000
    12 C      -5.899602    -2.160345     1.726038 C          1 UNL1 0.000
    13 C      -5.297937    -0.886146     1.774865 C          1 UNL1 0.000
    14 S      -6.423741     0.480456     1.791514 S          1 UNL1 0.000
    15 C      -1.787586     0.546978     1.823660 C          1 UNL1 0.000
    16 C      -1.056184     0.594055     3.020203 C          1 UNL1 0.000
    17 C       0.335024     0.628064     2.971926 C          1 UNL1 0.000
    18 C       1.010720     0.649532     1.753074 C          1 UNL1 0.000
    19 C       0.290394     0.583263     0.556934 C          1 UNL1 0.000
    20 C      -1.107849     0.532197     0.592967 C          1 UNL1 0.000
    21 O       1.066865     0.708295     4.124743 O          1 UNL1 0.000
    22 C       1.268109    -0.595327     4.672662 C          1 UNL1 0.000
    23 H      -7.064127     3.197960     1.843071 H          1 UNL1 0.000
    24 H      -5.756335     5.277951     1.907004 H          1 UNL1 0.000
    25 H      -3.275325     5.172019     1.942889 H          1 UNL1 0.000
    26 H      -2.134939     3.032644     1.916010 H          1 UNL1 0.000
    27 H      -2.062930    -1.947803     1.829825 H          1 UNL1 0.000
    28 H      -3.140508    -4.120114     1.742828 H          1 UNL1 0.000
    29 H      -5.616655    -4.294878     1.673705 H          1 UNL1 0.000
    30 H      -6.984199    -2.253056     1.697916 H          1 UNL1 0.000
    31 H      -1.573741     0.615773     3.974731 H          1 UNL1 0.000
    32 H       2.096452     0.701366     1.744626 H          1 UNL1 0.000
    33 H      -1.682381     0.500379    -0.330557 H          1 UNL1 0.000
    34 H       2.123420    -0.543865     5.353182 H          1 UNL1 0.000
    35 H       1.496986    -1.341590     3.902291 H          1 UNL1 0.000
    36 H       0.388684    -0.902613     5.247391 H          1 UNL1 0.000
    37 C       0.997419     0.579176    -0.711727 C          1 UNL1 0.000
    38 C       0.928842    -0.499275    -1.571837 C          1 UNL1 0.000
    39 S       1.870027    -0.266399    -2.983017 S          1 UNL1 0.000
    40 C       2.379343     1.278415    -2.454673 C          1 UNL1 0.000
    41 C       1.848752     1.605983    -1.226303 C          1 UNL1 0.000
    42 H       0.379901    -1.422416    -1.442490 H          1 UNL1 0.000
    43 H       3.044190     1.870718    -3.068193 H          1 UNL1 0.000
    44 H       2.053742     2.543755    -0.723637 H          1 UNL1 0.000
@<TRIPOS>BOND
     1      1      2   1
     2      1      3   1
     3      3      4   2
     4      4      5   1
     5      5      6   2
     6      6      7   1
     7      7      8   2
     8      8      3   1
     9      2      9   2
    10      9     10   1
    11     10     11   2
    12     11     12   1
    13     12     13   2
    14     13      2   1
    15      4     14   1
    16     14     13   1
    17     15     16   2
    18     16     17   1
    19     17     18   2
    20     18     19   1
    21     19     20   2
    22     20     15   1
    23     21     22   1
    24     17     21   1
    25      1     15   1
    26      5     23   1
    27      6     24   1
    28      7     25   1
    29      8     26   1
    30      9     27   1
    31     10     28   1
    32     11     29   1
    33     12     30   1
    34     16     31   1
    35     18     32   1
    36     20     33   1
    37     22     34   1
    38     22     35   1
    39     22     36   1
    40     37     38   2
    41     38     39   1
    42     39     40   1
    43     40     41   2
    44     41     37   1
    45     38     42   1
    46     40     43   1
    47     41     44   1
    48     19     37   1
