# Produced with molli package
@<TRIPOS>MOLECULE
H_4_Q
45 49 0 0 0
SMALL
USER_CHARGES

@<TRIPOS>ATOM
     1 N      -3.183199     0.501847     1.776529 N          1 UNL1 0.000
     2 C      -3.893589    -0.760900     1.801781 C          1 UNL1 0.000
     3 C      -3.852532     1.787755     1.731987 C          1 UNL1 0.000
     4 C      -5.251132     1.919793     1.760101 C          1 UNL1 0.000
     5 C      -5.850542     3.195086     1.706122 C          1 UNL1 0.000
     6 C      -5.083419     4.353128     1.624987 C          1 UNL1 0.000
     7 C      -3.703475     4.249274     1.600144 C          1 UNL1 0.000
     8 C      -3.101174     2.988562     1.653932 C          1 UNL1 0.000
     9 C      -3.182426    -1.987540     1.784361 C          1 UNL1 0.000
    10 C      -3.827220    -3.228348     1.806962 C          1 UNL1 0.000
    11 C      -5.209879    -3.284809     1.849191 C          1 UNL1 0.000
    12 C      -5.938002    -2.099459     1.867200 C          1 UNL1 0.000
    13 C      -5.296112    -0.844373     1.842724 C          1 UNL1 0.000
    14 S      -6.377346     0.558128     1.875962 S          1 UNL1 0.000
    15 C      -1.744257     0.482629     1.795922 C          1 UNL1 0.000
    16 C      -1.055965     0.527662     3.014347 C          1 UNL1 0.000
    17 C       0.333946     0.533453     3.013658 C          1 UNL1 0.000
    18 C       1.051600     0.545221     1.816736 C          1 UNL1 0.000
    19 C       0.385426     0.498362     0.581113 C          1 UNL1 0.000
    20 C      -1.019909     0.449781     0.590178 C          1 UNL1 0.000
    21 O       1.007335     0.608043     4.202276 O          1 UNL1 0.000
    22 C       1.362483    -0.703239     4.644225 C          1 UNL1 0.000
    23 H      -6.934785     3.291865     1.728428 H          1 UNL1 0.000
    24 H      -5.563544     5.326812     1.583609 H          1 UNL1 0.000
    25 H      -3.087280     5.142619     1.538930 H          1 UNL1 0.000
    26 H      -2.014686     2.970822     1.631066 H          1 UNL1 0.000
    27 H      -2.096172    -2.005391     1.745723 H          1 UNL1 0.000
    28 H      -3.241967    -4.144073     1.788620 H          1 UNL1 0.000
    29 H      -5.722516    -4.242527     1.866546 H          1 UNL1 0.000
    30 H      -7.024735    -2.158174     1.900329 H          1 UNL1 0.000
    31 H      -1.604621     0.562993     3.950991 H          1 UNL1 0.000
    32 H       2.138205     0.575671     1.859108 H          1 UNL1 0.000
    33 H      -1.565088     0.408610    -0.352238 H          1 UNL1 0.000
    34 H       1.933418    -0.600922     5.571903 H          1 UNL1 0.000
    35 H       1.997313    -1.214539     3.911831 H          1 UNL1 0.000
    36 H       0.469221    -1.300513     4.857552 H          1 UNL1 0.000
    37 C       1.124534     0.505239    -0.685839 C          1 UNL1 0.000
    38 N       0.768754    -0.436445    -1.597381 N          1 UNL1 0.000
    39 C       1.464804    -0.432567    -2.758653 C          1 UNL1 0.000
    40 C       2.474257     0.478027    -3.019058 C          1 UNL1 0.000
    41 N       2.836298     1.427880    -2.130864 N          1 UNL1 0.000
    42 C       2.140553     1.419612    -0.965718 C          1 UNL1 0.000
    43 H       1.186939    -1.191453    -3.480629 H          1 UNL1 0.000
    44 H       3.020721     0.467123    -3.955243 H          1 UNL1 0.000
    45 H       2.421015     2.191730    -0.257187 H          1 UNL1 0.000
@<TRIPOS>BOND
     1      1      2   1
     2      1      3   1
     3      3      4   2
     4      4      5   1
     5      5      6   2
     6      6      7   1
     7      7      8   2
     8      8      3   1
     9      2      9   2
    10      9     10   1
    11     10     11   2
    12     11     12   1
    13     12     13   2
    14     13      2   1
    15      4     14   1
    16     14     13   1
    17     15     16   2
    18     16     17   1
    19     17     18   2
    20     18     19   1
    21     19     20   2
    22     20     15   1
    23     21     22   1
    24     17     21   1
    25      1     15   1
    26      5     23   1
    27      6     24   1
    28      7     25   1
    29      8     26   1
    30      9     27   1
    31     10     28   1
    32     11     29   1
    33     12     30   1
    34     16     31   1
    35     18     32   1
    36     20     33   1
    37     22     34   1
    38     22     35   1
    39     22     36   1
    40     37     38   2
    41     38     39   1
    42     39     40   2
    43     40     41   1
    44     41     42   2
    45     42     37   1
    46     39     43   1
    47     40     44   1
    48     42     45   1
    49     19     37   1
