# Produced with molli package
@<TRIPOS>MOLECULE
H_4_O
46 50 0 0 0
SMALL
USER_CHARGES

@<TRIPOS>ATOM
     1 N      -3.101382     0.444727     1.759494 N          1 UNL1 0.000
     2 C      -3.775982    -0.837670     1.739578 C          1 UNL1 0.000
     3 C      -3.806424     1.711979     1.788362 C          1 UNL1 0.000
     4 C      -5.208452     1.803755     1.802228 C          1 UNL1 0.000
     5 C      -5.842885     3.062931     1.832738 C          1 UNL1 0.000
     6 C      -5.107893     4.244259     1.849547 C          1 UNL1 0.000
     7 C      -3.725448     4.180068     1.833180 C          1 UNL1 0.000
     8 C      -3.088594     2.935625     1.801300 C          1 UNL1 0.000
     9 C      -3.029937    -2.043321     1.715147 C          1 UNL1 0.000
    10 C      -3.639222    -3.302044     1.698677 C          1 UNL1 0.000
    11 C      -5.020251    -3.398376     1.706145 C          1 UNL1 0.000
    12 C      -5.782174    -2.234604     1.730048 C          1 UNL1 0.000
    13 C      -5.176082    -0.961616     1.747461 C          1 UNL1 0.000
    14 S      -6.298291     0.408253     1.781509 S          1 UNL1 0.000
    15 C      -1.661926     0.465400     1.748855 C          1 UNL1 0.000
    16 C      -0.948286     0.536206     2.952566 C          1 UNL1 0.000
    17 C       0.441406     0.587093     2.922231 C          1 UNL1 0.000
    18 C       1.130234     0.612618     1.709888 C          1 UNL1 0.000
    19 C       0.438744     0.531231     0.490304 C          1 UNL1 0.000
    20 C      -0.963512     0.444857     0.528411 C          1 UNL1 0.000
    21 O       1.164845     0.687875     4.079448 O          1 UNL1 0.000
    22 C       1.240223    -0.583280     4.726389 C          1 UNL1 0.000
    23 H      -6.929655     3.128252     1.843217 H          1 UNL1 0.000
    24 H      -5.614777     5.204830     1.873793 H          1 UNL1 0.000
    25 H      -3.133720     5.091733     1.844582 H          1 UNL1 0.000
    26 H      -2.001758     2.949152     1.786319 H          1 UNL1 0.000
    27 H      -1.942838    -2.030003     1.704427 H          1 UNL1 0.000
    28 H      -3.027266    -4.200071     1.677190 H          1 UNL1 0.000
    29 H      -5.505351    -4.370335     1.691908 H          1 UNL1 0.000
    30 H      -6.867235    -2.324587     1.734646 H          1 UNL1 0.000
    31 H      -1.480768     0.565021     3.898436 H          1 UNL1 0.000
    32 H       2.216084     0.672132     1.723276 H          1 UNL1 0.000
    33 H      -1.523844     0.379186    -0.403426 H          1 UNL1 0.000
    34 H       1.930211    -0.488421     5.570208 H          1 UNL1 0.000
    35 H       1.635890    -1.350896     4.051244 H          1 UNL1 0.000
    36 H       0.263617    -0.885561     5.118705 H          1 UNL1 0.000
    37 C       1.154491     0.536146    -0.791021 C          1 UNL1 0.000
    38 N       0.859781    -0.485407    -1.633025 N          1 UNL1 0.000
    39 C       1.512421    -0.526549    -2.815352 C          1 UNL1 0.000
    40 C       2.445250     0.414596    -3.215359 C          1 UNL1 0.000
    41 C       2.728767     1.463730    -2.350767 C          1 UNL1 0.000
    42 C       2.079508     1.526281    -1.120417 C          1 UNL1 0.000
    43 H       1.256524    -1.367068    -3.454195 H          1 UNL1 0.000
    44 H       2.936496     0.332950    -4.178241 H          1 UNL1 0.000
    45 H       3.447693     2.228382    -2.630345 H          1 UNL1 0.000
    46 H       2.284757     2.344587    -0.437474 H          1 UNL1 0.000
@<TRIPOS>BOND
     1      1      2   1
     2      1      3   1
     3      3      4   2
     4      4      5   1
     5      5      6   2
     6      6      7   1
     7      7      8   2
     8      8      3   1
     9      2      9   2
    10      9     10   1
    11     10     11   2
    12     11     12   1
    13     12     13   2
    14     13      2   1
    15      4     14   1
    16     14     13   1
    17     15     16   2
    18     16     17   1
    19     17     18   2
    20     18     19   1
    21     19     20   2
    22     20     15   1
    23     21     22   1
    24     17     21   1
    25      1     15   1
    26      5     23   1
    27      6     24   1
    28      7     25   1
    29      8     26   1
    30      9     27   1
    31     10     28   1
    32     11     29   1
    33     12     30   1
    34     16     31   1
    35     18     32   1
    36     20     33   1
    37     22     34   1
    38     22     35   1
    39     22     36   1
    40     37     38   2
    41     38     39   1
    42     39     40   2
    43     40     41   1
    44     41     42   2
    45     42     37   1
    46     39     43   1
    47     40     44   1
    48     41     45   1
    49     42     46   1
    50     19     37   1
