# Produced with molli package
@<TRIPOS>MOLECULE
H_4_P
51 55 0 0 0
SMALL
USER_CHARGES

@<TRIPOS>ATOM
     1 N      -3.104262     0.472686     1.786320 N          1 UNL1 0.000
     2 C      -3.801099    -0.798299     1.817832 C          1 UNL1 0.000
     3 C      -3.787876     1.751547     1.776240 C          1 UNL1 0.000
     4 C      -5.187885     1.867415     1.813897 C          1 UNL1 0.000
     5 C      -5.801848     3.136842     1.800053 C          1 UNL1 0.000
     6 C      -5.047711     4.304942     1.749306 C          1 UNL1 0.000
     7 C      -3.666907     4.216830     1.712218 C          1 UNL1 0.000
     8 C      -3.049969     2.961840     1.725641 C          1 UNL1 0.000
     9 C      -3.076127    -2.017273     1.806786 C          1 UNL1 0.000
    10 C      -3.706634    -3.265405     1.835437 C          1 UNL1 0.000
    11 C      -5.088346    -3.337442     1.877030 C          1 UNL1 0.000
    12 C      -5.829897    -2.160354     1.889439 C          1 UNL1 0.000
    13 C      -5.202343    -0.897901     1.860225 C          1 UNL1 0.000
    14 S      -6.300207     0.491340     1.884190 S          1 UNL1 0.000
    15 C      -1.664713     0.466035     1.753869 C          1 UNL1 0.000
    16 C      -0.930656     0.500524     2.948483 C          1 UNL1 0.000
    17 C       0.459498     0.497258     2.898442 C          1 UNL1 0.000
    18 C       1.129663     0.490173     1.675843 C          1 UNL1 0.000
    19 C       0.414449     0.445390     0.471101 C          1 UNL1 0.000
    20 C      -0.986784     0.434201     0.520734 C          1 UNL1 0.000
    21 O       1.212215     0.569547     4.038184 O          1 UNL1 0.000
    22 C       1.208804    -0.683578     4.721787 C          1 UNL1 0.000
    23 H      -6.886981     3.220837     1.829589 H          1 UNL1 0.000
    24 H      -5.538886     5.274017     1.739693 H          1 UNL1 0.000
    25 H      -3.060964     5.118433     1.673321 H          1 UNL1 0.000
    26 H      -1.963351     2.956077     1.695313 H          1 UNL1 0.000
    27 H      -1.989900    -2.023241     1.772417 H          1 UNL1 0.000
    28 H      -3.111310    -4.174752     1.823393 H          1 UNL1 0.000
    29 H      -5.590313    -4.300825     1.898878 H          1 UNL1 0.000
    30 H      -6.915919    -2.231505     1.921935 H          1 UNL1 0.000
    31 H      -1.448430     0.544190     3.902295 H          1 UNL1 0.000
    32 H       2.216877     0.517233     1.665919 H          1 UNL1 0.000
    33 H      -1.564598     0.402478    -0.401310 H          1 UNL1 0.000
    34 H       2.056389    -0.688012     5.413875 H          1 UNL1 0.000
    35 H       1.333748    -1.527972     4.033366 H          1 UNL1 0.000
    36 H       0.289654    -0.799012     5.304504 H          1 UNL1 0.000
    37 C       1.128348     0.408700    -0.806914 C          1 UNL1 0.000
    38 C       1.268272     1.568037    -1.585092 C          1 UNL1 0.000
    39 C       1.985326     1.538681    -2.784463 C          1 UNL1 0.000
    40 C       2.573904     0.348909    -3.206175 C          1 UNL1 0.000
    41 C       2.413506    -0.819808    -2.468649 C          1 UNL1 0.000
    42 C       1.702747    -0.786710    -1.266954 C          1 UNL1 0.000
    43 O       3.267540     0.275283    -4.383124 O          1 UNL1 0.000
    44 C       4.509364     0.972369    -4.281074 C          1 UNL1 0.000
    45 H       0.822463     2.503923    -1.255054 H          1 UNL1 0.000
    46 H       2.073034     2.440065    -3.383014 H          1 UNL1 0.000
    47 H       2.848192    -1.750384    -2.820816 H          1 UNL1 0.000
    48 H       1.596608    -1.701904    -0.688573 H          1 UNL1 0.000
    49 H       5.084935     0.764264    -5.188026 H          1 UNL1 0.000
    50 H       5.093275     0.620836    -3.422515 H          1 UNL1 0.000
    51 H       4.354332     2.054556    -4.221222 H          1 UNL1 0.000
@<TRIPOS>BOND
     1      1      2   1
     2      1      3   1
     3      3      4   2
     4      4      5   1
     5      5      6   2
     6      6      7   1
     7      7      8   2
     8      8      3   1
     9      2      9   2
    10      9     10   1
    11     10     11   2
    12     11     12   1
    13     12     13   2
    14     13      2   1
    15      4     14   1
    16     14     13   1
    17     15     16   2
    18     16     17   1
    19     17     18   2
    20     18     19   1
    21     19     20   2
    22     20     15   1
    23     21     22   1
    24     17     21   1
    25      1     15   1
    26      5     23   1
    27      6     24   1
    28      7     25   1
    29      8     26   1
    30      9     27   1
    31     10     28   1
    32     11     29   1
    33     12     30   1
    34     16     31   1
    35     18     32   1
    36     20     33   1
    37     22     34   1
    38     22     35   1
    39     22     36   1
    40     37     38   2
    41     38     39   1
    42     39     40   2
    43     40     41   1
    44     41     42   2
    45     42     37   1
    46     43     44   1
    47     40     43   1
    48     38     45   1
    49     39     46   1
    50     41     47   1
    51     42     48   1
    52     44     49   1
    53     44     50   1
    54     44     51   1
    55     19     37   1
