# Produced with molli package
@<TRIPOS>MOLECULE
H_4_M
48 52 0 0 0
SMALL
USER_CHARGES

@<TRIPOS>ATOM
     1 N      -3.163374     0.457457     1.741117 N          1 UNL1 0.000
     2 C      -3.839851    -0.824666     1.777696 C          1 UNL1 0.000
     3 C      -3.867605     1.725323     1.759063 C          1 UNL1 0.000
     4 C      -5.269108     1.817889     1.813104 C          1 UNL1 0.000
     5 C      -5.902792     3.076890     1.855226 C          1 UNL1 0.000
     6 C      -5.167863     4.257832     1.834637 C          1 UNL1 0.000
     7 C      -3.786862     4.193009     1.764268 C          1 UNL1 0.000
     8 C      -3.150189     2.948266     1.725938 C          1 UNL1 0.000
     9 C      -3.095259    -2.031741     1.781957 C          1 UNL1 0.000
    10 C      -3.705211    -3.289632     1.822517 C          1 UNL1 0.000
    11 C      -5.085842    -3.383987     1.857548 C          1 UNL1 0.000
    12 C      -5.846455    -2.219238     1.852938 C          1 UNL1 0.000
    13 C      -5.239550    -0.947040     1.815363 C          1 UNL1 0.000
    14 S      -6.360247     0.423564     1.828183 S          1 UNL1 0.000
    15 C      -1.723008     0.473026     1.745952 C          1 UNL1 0.000
    16 C      -1.023120     0.541028     2.959550 C          1 UNL1 0.000
    17 C       0.367027     0.553861     2.947402 C          1 UNL1 0.000
    18 C       1.073362     0.527574     1.745373 C          1 UNL1 0.000
    19 C       0.393128     0.458349     0.521501 C          1 UNL1 0.000
    20 C      -1.010250     0.429893     0.533112 C          1 UNL1 0.000
    21 O       1.061178     0.681681     4.117984 O          1 UNL1 0.000
    22 C       1.361529    -0.601353     4.667231 C          1 UNL1 0.000
    23 H      -6.988556     3.142396     1.905880 H          1 UNL1 0.000
    24 H      -5.673975     5.218560     1.871127 H          1 UNL1 0.000
    25 H      -3.196457     5.105422     1.742432 H          1 UNL1 0.000
    26 H      -2.064556     2.960908     1.672103 H          1 UNL1 0.000
    27 H      -2.008897    -2.020447     1.755789 H          1 UNL1 0.000
    28 H      -3.095233    -4.189211     1.827142 H          1 UNL1 0.000
    29 H      -5.572112    -4.355072     1.889580 H          1 UNL1 0.000
    30 H      -6.931415    -2.307868     1.881703 H          1 UNL1 0.000
    31 H      -1.564799     0.595088     3.899295 H          1 UNL1 0.000
    32 H       2.159890     0.574455     1.766715 H          1 UNL1 0.000
    33 H      -1.562637     0.380754    -0.403676 H          1 UNL1 0.000
    34 H       2.289487    -0.510539     5.240076 H          1 UNL1 0.000
    35 H       1.511937    -1.373068     3.902714 H          1 UNL1 0.000
    36 H       0.562081    -0.903970     5.350447 H          1 UNL1 0.000
    37 C       1.140372     0.437277    -0.737668 C          1 UNL1 0.000
    38 C       1.283885     1.605150    -1.501653 C          1 UNL1 0.000
    39 C       2.019612     1.596360    -2.690752 C          1 UNL1 0.000
    40 C       2.620152     0.414916    -3.134636 C          1 UNL1 0.000
    41 C       2.481523    -0.755925    -2.383605 C          1 UNL1 0.000
    42 C       1.747903    -0.742750    -1.192836 C          1 UNL1 0.000
    43 C       3.376773     0.404962    -4.352067 C          1 UNL1 0.000
    44 N       3.990746     0.396634    -5.337343 N          1 UNL1 0.000
    45 H       0.829005     2.535272    -1.164456 H          1 UNL1 0.000
    46 H       2.121582     2.517588    -3.261428 H          1 UNL1 0.000
    47 H       2.943297    -1.683886    -2.716009 H          1 UNL1 0.000
    48 H       1.651634    -1.662220    -0.617851 H          1 UNL1 0.000
@<TRIPOS>BOND
     1      1      2   1
     2      1      3   1
     3      3      4   2
     4      4      5   1
     5      5      6   2
     6      6      7   1
     7      7      8   2
     8      8      3   1
     9      2      9   2
    10      9     10   1
    11     10     11   2
    12     11     12   1
    13     12     13   2
    14     13      2   1
    15      4     14   1
    16     14     13   1
    17     15     16   2
    18     16     17   1
    19     17     18   2
    20     18     19   1
    21     19     20   2
    22     20     15   1
    23     21     22   1
    24     17     21   1
    25      1     15   1
    26      5     23   1
    27      6     24   1
    28      7     25   1
    29      8     26   1
    30      9     27   1
    31     10     28   1
    32     11     29   1
    33     12     30   1
    34     16     31   1
    35     18     32   1
    36     20     33   1
    37     22     34   1
    38     22     35   1
    39     22     36   1
    40     37     38   2
    41     38     39   1
    42     39     40   2
    43     40     41   1
    44     41     42   2
    45     42     37   1
    46     43     44   3
    47     40     43   1
    48     38     45   1
    49     39     46   1
    50     41     47   1
    51     42     48   1
    52     19     37   1
