# Produced with molli package
@<TRIPOS>MOLECULE
H_4_S
52 56 0 0 0
SMALL
USER_CHARGES

@<TRIPOS>ATOM
     1 N      -3.155207     0.523257     1.808081 N          1 UNL1 0.000
     2 C      -3.853806    -0.746530     1.787713 C          1 UNL1 0.000
     3 C      -3.837189     1.803350     1.825376 C          1 UNL1 0.000
     4 C      -5.237290     1.921196     1.796731 C          1 UNL1 0.000
     5 C      -5.849365     3.191480     1.816143 C          1 UNL1 0.000
     6 C      -5.093652     4.358613     1.864813 C          1 UNL1 0.000
     7 C      -3.712705     4.268691     1.892776 C          1 UNL1 0.000
     8 C      -3.097684     3.012928     1.872237 C          1 UNL1 0.000
     9 C      -3.130509    -1.966236     1.802417 C          1 UNL1 0.000
    10 C      -3.763113    -3.213426     1.785504 C          1 UNL1 0.000
    11 C      -5.145386    -3.283547     1.753006 C          1 UNL1 0.000
    12 C      -5.885211    -2.105515     1.737586 C          1 UNL1 0.000
    13 C      -5.255649    -0.844079     1.755217 C          1 UNL1 0.000
    14 S      -6.351413     0.546724     1.727267 S          1 UNL1 0.000
    15 C      -1.715352     0.516806     1.785174 C          1 UNL1 0.000
    16 C      -0.986762     0.535037     2.983267 C          1 UNL1 0.000
    17 C       0.403558     0.555412     2.936797 C          1 UNL1 0.000
    18 C       1.077961     0.591579     1.717084 C          1 UNL1 0.000
    19 C       0.368990     0.557564     0.507848 C          1 UNL1 0.000
    20 C      -1.032566     0.515352     0.554655 C          1 UNL1 0.000
    21 O       1.147940     0.610736     4.082942 O          1 UNL1 0.000
    22 C       1.205754    -0.674350     4.702746 C          1 UNL1 0.000
    23 H      -6.934612     3.277024     1.792519 H          1 UNL1 0.000
    24 H      -5.583498     5.328255     1.880179 H          1 UNL1 0.000
    25 H      -3.105529     5.169441     1.931314 H          1 UNL1 0.000
    26 H      -2.010924     3.006348     1.896479 H          1 UNL1 0.000
    27 H      -2.044033    -1.973302     1.828941 H          1 UNL1 0.000
    28 H      -3.169506    -4.123877     1.797614 H          1 UNL1 0.000
    29 H      -5.648966    -4.246222     1.739051 H          1 UNL1 0.000
    30 H      -6.971583    -2.175167     1.710709 H          1 UNL1 0.000
    31 H      -1.507203     0.550801     3.936177 H          1 UNL1 0.000
    32 H       2.165071     0.631358     1.714406 H          1 UNL1 0.000
    33 H      -1.608699     0.501724    -0.369049 H          1 UNL1 0.000
    34 H       2.063167    -0.678573     5.382639 H          1 UNL1 0.000
    35 H       1.352835    -1.479649     3.972965 H          1 UNL1 0.000
    36 H       0.300256    -0.854241     5.290557 H          1 UNL1 0.000
    37 C       1.084333     0.567447    -0.770660 C          1 UNL1 0.000
    38 C       1.140764    -0.582259    -1.569663 C          1 UNL1 0.000
    39 C       1.857058    -0.582463    -2.770559 C          1 UNL1 0.000
    40 C       2.528086     0.570022    -3.199108 C          1 UNL1 0.000
    41 C       2.457241     1.729213    -2.420181 C          1 UNL1 0.000
    42 C       1.746499     1.722309    -1.213678 C          1 UNL1 0.000
    43 C       3.294994     0.507036    -4.479007 C          1 UNL1 0.000
    44 C       4.185054     1.658652    -4.869060 C          1 UNL1 0.000
    45 O       3.181769    -0.476002    -5.209213 O          1 UNL1 0.000
    46 H       0.638137    -1.494625    -1.253694 H          1 UNL1 0.000
    47 H       1.893763    -1.492834    -3.366829 H          1 UNL1 0.000
    48 H       2.939556     2.653233    -2.723946 H          1 UNL1 0.000
    49 H       1.708051     2.631734    -0.615616 H          1 UNL1 0.000
    50 H       4.971488     1.287030    -5.533796 H          1 UNL1 0.000
    51 H       4.685724     2.094389    -4.001582 H          1 UNL1 0.000
    52 H       3.597977     2.415400    -5.394881 H          1 UNL1 0.000
@<TRIPOS>BOND
     1      1      2   1
     2      1      3   1
     3      3      4   2
     4      4      5   1
     5      5      6   2
     6      6      7   1
     7      7      8   2
     8      8      3   1
     9      2      9   2
    10      9     10   1
    11     10     11   2
    12     11     12   1
    13     12     13   2
    14     13      2   1
    15      4     14   1
    16     14     13   1
    17     15     16   2
    18     16     17   1
    19     17     18   2
    20     18     19   1
    21     19     20   2
    22     20     15   1
    23     21     22   1
    24     17     21   1
    25      1     15   1
    26      5     23   1
    27      6     24   1
    28      7     25   1
    29      8     26   1
    30      9     27   1
    31     10     28   1
    32     11     29   1
    33     12     30   1
    34     16     31   1
    35     18     32   1
    36     20     33   1
    37     22     34   1
    38     22     35   1
    39     22     36   1
    40     37     38   2
    41     38     39   1
    42     39     40   2
    43     40     41   1
    44     41     42   2
    45     42     37   1
    46     40     43   1
    47     43     44   1
    48     43     45   2
    49     38     46   1
    50     39     47   1
    51     41     48   1
    52     42     49   1
    53     44     50   1
    54     44     51   1
    55     44     52   1
    56     19     37   1
