# Produced with molli package
@<TRIPOS>MOLECULE
H_5_Q
47 52 0 0 0
SMALL
USER_CHARGES

@<TRIPOS>ATOM
     1 N      -5.467834     0.529047     3.057234 N          1 UNL1 0.000
     2 C      -6.151665    -0.749774     3.050442 C          1 UNL1 0.000
     3 C      -6.162084     1.799548     3.121183 C          1 UNL1 0.000
     4 C      -7.563092     1.900006     3.168942 C          1 UNL1 0.000
     5 C      -8.187819     3.162092     3.238642 C          1 UNL1 0.000
     6 C      -7.443834     4.337592     3.261373 C          1 UNL1 0.000
     7 C      -6.062299     4.264417     3.212228 C          1 UNL1 0.000
     8 C      -5.434651     3.016790     3.142644 C          1 UNL1 0.000
     9 C      -5.413987    -1.960513     2.999211 C          1 UNL1 0.000
    10 C      -6.029997    -3.215819     3.002205 C          1 UNL1 0.000
    11 C      -7.410407    -3.303804     3.053223 C          1 UNL1 0.000
    12 C      -8.164514    -2.135241     3.097317 C          1 UNL1 0.000
    13 C      -7.551321    -0.865343     3.095129 C          1 UNL1 0.000
    14 S      -8.663083     0.511963     3.150395 S          1 UNL1 0.000
    15 C      -4.028982     0.533116     3.051263 C          1 UNL1 0.000
    16 C      -3.321968     0.467000     4.258813 C          1 UNL1 0.000
    17 C      -1.927486     0.438363     4.253807 C          1 UNL1 0.000
    18 C      -1.215407     0.473044     3.045067 C          1 UNL1 0.000
    19 C      -1.919536     0.555564     1.820978 C          1 UNL1 0.000
    20 C      -3.323355     0.586013     1.838598 C          1 UNL1 0.000
    21 C       0.184519     0.424213     3.027382 C          1 UNL1 0.000
    22 C       0.884562     0.444419     1.818203 C          1 UNL1 0.000
    23 C       0.205412     0.527195     0.594011 C          1 UNL1 0.000
    24 C      -1.197781     0.595719     0.614634 C          1 UNL1 0.000
    25 H      -9.273545     3.234340     3.276953 H          1 UNL1 0.000
    26 H      -7.943170     5.300881     3.316509 H          1 UNL1 0.000
    27 H      -5.464221     5.171944     3.227785 H          1 UNL1 0.000
    28 H      -4.347947     3.021722     3.106180 H          1 UNL1 0.000
    29 H      -4.327667    -1.954365     2.956001 H          1 UNL1 0.000
    30 H      -5.424012    -4.117420     2.964862 H          1 UNL1 0.000
    31 H      -7.901154    -4.273081     3.057196 H          1 UNL1 0.000
    32 H      -9.249444    -2.219301     3.134414 H          1 UNL1 0.000
    33 H      -3.863065     0.430218     5.201010 H          1 UNL1 0.000
    34 H      -1.400655     0.381673     5.203977 H          1 UNL1 0.000
    35 H      -3.884181     0.640528     0.907541 H          1 UNL1 0.000
    36 H       0.745856     0.368815     3.957985 H          1 UNL1 0.000
    37 H       1.972467     0.413634     1.840800 H          1 UNL1 0.000
    38 H      -1.732914     0.672773    -0.331942 H          1 UNL1 0.000
    39 C       0.938253     0.537625    -0.673098 C          1 UNL1 0.000
    40 N       0.808708     1.650189    -1.440294 N          1 UNL1 0.000
    41 C       1.517793     1.657699    -2.593342 C          1 UNL1 0.000
    42 C       2.315713     0.596305    -2.985626 C          1 UNL1 0.000
    43 N       2.444380    -0.524347    -2.242556 N          1 UNL1 0.000
    44 C       1.740835    -0.526525    -1.082702 C          1 UNL1 0.000
    45 H       1.429301     2.552711    -3.198537 H          1 UNL1 0.000
    46 H       2.876175     0.620107    -3.913169 H          1 UNL1 0.000
    47 H       1.835423    -1.426814    -0.484393 H          1 UNL1 0.000
@<TRIPOS>BOND
     1      1      2   1
     2      1      3   1
     3      3      4   2
     4      4      5   1
     5      5      6   2
     6      6      7   1
     7      7      8   2
     8      8      3   1
     9      2      9   2
    10      9     10   1
    11     10     11   2
    12     11     12   1
    13     12     13   2
    14     13      2   1
    15      4     14   1
    16     14     13   1
    17     15     16   2
    18     16     17   1
    19     17     18   2
    20     18     19   1
    21     19     20   2
    22     20     15   1
    23     18     21   1
    24     21     22   2
    25     22     23   1
    26     23     24   2
    27     24     19   1
    28      1     15   1
    29      5     25   1
    30      6     26   1
    31      7     27   1
    32      8     28   1
    33      9     29   1
    34     10     30   1
    35     11     31   1
    36     12     32   1
    37     16     33   1
    38     17     34   1
    39     20     35   1
    40     21     36   1
    41     22     37   1
    42     24     38   1
    43     39     40   2
    44     40     41   1
    45     41     42   2
    46     42     43   1
    47     43     44   2
    48     44     39   1
    49     41     45   1
    50     42     46   1
    51     44     47   1
    52     23     39   1
