# Produced with molli package
@<TRIPOS>MOLECULE
H_5_N
46 51 0 0 0
SMALL
USER_CHARGES

@<TRIPOS>ATOM
     1 N      -5.390450     0.521716     3.040686 N          1 UNL1 0.000
     2 C      -6.075763    -0.755714     3.034749 C          1 UNL1 0.000
     3 C      -6.083805     1.794502     3.064348 C          1 UNL1 0.000
     4 C      -7.485284     1.897863     3.076130 C          1 UNL1 0.000
     5 C      -8.109195     3.162146     3.100929 C          1 UNL1 0.000
     6 C      -7.363980     4.337056     3.114992 C          1 UNL1 0.000
     7 C      -5.981822     4.261084     3.103307 C          1 UNL1 0.000
     8 C      -5.355000     3.011291     3.077820 C          1 UNL1 0.000
     9 C      -5.338848    -1.967708     3.017381 C          1 UNL1 0.000
    10 C      -5.956938    -3.221864     3.016502 C          1 UNL1 0.000
    11 C      -7.338411    -3.307235     3.031983 C          1 UNL1 0.000
    12 C      -8.091522    -2.137287     3.046142 C          1 UNL1 0.000
    13 C      -7.476331    -0.868529     3.046879 C          1 UNL1 0.000
    14 S      -8.586736     0.511011     3.062247 S          1 UNL1 0.000
    15 C      -3.951781     0.525175     3.036459 C          1 UNL1 0.000
    16 C      -3.243213     0.506733     4.244382 C          1 UNL1 0.000
    17 C      -1.847567     0.505676     4.239271 C          1 UNL1 0.000
    18 C      -1.135970     0.522612     3.029104 C          1 UNL1 0.000
    19 C      -1.844732     0.537852     1.804243 C          1 UNL1 0.000
    20 C      -3.248314     0.541024     1.821749 C          1 UNL1 0.000
    21 C       0.267449     0.525749     3.011158 C          1 UNL1 0.000
    22 C       0.965692     0.544239     1.801502 C          1 UNL1 0.000
    23 C       0.269144     0.550862     0.591692 C          1 UNL1 0.000
    24 C      -1.130626     0.549626     0.594749 C          1 UNL1 0.000
    25 H      -9.195436     3.236680     3.109837 H          1 UNL1 0.000
    26 H      -7.862939     5.301961     3.134718 H          1 UNL1 0.000
    27 H      -5.382927     5.168142     3.113830 H          1 UNL1 0.000
    28 H      -4.267794     3.014250     3.069201 H          1 UNL1 0.000
    29 H      -4.251705    -1.963471     3.004425 H          1 UNL1 0.000
    30 H      -5.351724    -4.124675     3.003968 H          1 UNL1 0.000
    31 H      -7.830731    -4.275711     3.032270 H          1 UNL1 0.000
    32 H      -9.177176    -2.219389     3.056815 H          1 UNL1 0.000
    33 H      -3.783074     0.492218     5.188014 H          1 UNL1 0.000
    34 H      -1.319570     0.491096     5.190117 H          1 UNL1 0.000
    35 H      -3.811142     0.554535     0.890752 H          1 UNL1 0.000
    36 H       0.830624     0.513514     3.941774 H          1 UNL1 0.000
    37 H       2.053304     0.543942     1.811427 H          1 UNL1 0.000
    38 H      -1.667234     0.565472    -0.352151 H          1 UNL1 0.000
    39 C       0.997646     0.570585    -0.663697 C          1 UNL1 0.000
    40 C       1.060184    -0.544219    -1.475691 C          1 UNL1 0.000
    41 S       1.984609    -0.265197    -2.889784 S          1 UNL1 0.000
    42 C       2.308669     1.349174    -2.425789 C          1 UNL1 0.000
    43 C       1.729394     1.666360    -1.216566 C          1 UNL1 0.000
    44 H       0.614173    -1.515848    -1.309710 H          1 UNL1 0.000
    45 H       2.908072     1.986861    -3.060857 H          1 UNL1 0.000
    46 H       1.818146     2.641961    -0.753954 H          1 UNL1 0.000
@<TRIPOS>BOND
     1      1      2   1
     2      1      3   1
     3      3      4   2
     4      4      5   1
     5      5      6   2
     6      6      7   1
     7      7      8   2
     8      8      3   1
     9      2      9   2
    10      9     10   1
    11     10     11   2
    12     11     12   1
    13     12     13   2
    14     13      2   1
    15      4     14   1
    16     14     13   1
    17     15     16   2
    18     16     17   1
    19     17     18   2
    20     18     19   1
    21     19     20   2
    22     20     15   1
    23     18     21   1
    24     21     22   2
    25     22     23   1
    26     23     24   2
    27     24     19   1
    28      1     15   1
    29      5     25   1
    30      6     26   1
    31      7     27   1
    32      8     28   1
    33      9     29   1
    34     10     30   1
    35     11     31   1
    36     12     32   1
    37     16     33   1
    38     17     34   1
    39     20     35   1
    40     21     36   1
    41     22     37   1
    42     24     38   1
    43     39     40   2
    44     40     41   1
    45     41     42   1
    46     42     43   2
    47     43     39   1
    48     40     44   1
    49     42     45   1
    50     43     46   1
    51     23     39   1
