# Produced with molli package
@<TRIPOS>MOLECULE
H_5_P
53 58 0 0 0
SMALL
USER_CHARGES

@<TRIPOS>ATOM
     1 N      -5.365027     0.558820     2.952471 N          1 UNL1 0.000
     2 C      -6.052965    -0.716825     2.987854 C          1 UNL1 0.000
     3 C      -6.055253     1.833302     2.990901 C          1 UNL1 0.000
     4 C      -7.455878     1.940098     3.027848 C          1 UNL1 0.000
     5 C      -8.075530     3.205559     3.081400 C          1 UNL1 0.000
     6 C      -7.326860     4.378314     3.096346 C          1 UNL1 0.000
     7 C      -5.945658     4.299220     3.051202 C          1 UNL1 0.000
     8 C      -5.323268     3.048350     2.996649 C          1 UNL1 0.000
     9 C      -5.319314    -1.930625     2.997395 C          1 UNL1 0.000
    10 C      -5.940777    -3.182524     3.045101 C          1 UNL1 0.000
    11 C      -7.322237    -3.263761     3.081898 C          1 UNL1 0.000
    12 C      -8.072302    -2.092012     3.067625 C          1 UNL1 0.000
    13 C      -7.453801    -0.825706     3.020736 C          1 UNL1 0.000
    14 S      -8.561043     0.556514     3.005825 S          1 UNL1 0.000
    15 C      -3.926016     0.561614     2.949390 C          1 UNL1 0.000
    16 C      -3.222070     0.594887     4.160166 C          1 UNL1 0.000
    17 C      -1.827525     0.608360     4.160152 C          1 UNL1 0.000
    18 C      -1.111974     0.584655     2.953297 C          1 UNL1 0.000
    19 C      -1.812735     0.545834     1.724615 C          1 UNL1 0.000
    20 C      -3.217417     0.536962     1.737395 C          1 UNL1 0.000
    21 C       0.289035     0.595541     2.943754 C          1 UNL1 0.000
    22 C       0.993737     0.559316     1.738744 C          1 UNL1 0.000
    23 C       0.316728     0.513038     0.513869 C          1 UNL1 0.000
    24 C      -1.086659     0.512408     0.520178 C          1 UNL1 0.000
    25 H      -9.161142     3.282716     3.112583 H          1 UNL1 0.000
    26 H      -7.822437     5.344101     3.140412 H          1 UNL1 0.000
    27 H      -5.343848     5.204328     3.058769 H          1 UNL1 0.000
    28 H      -4.236605     3.048988     2.960759 H          1 UNL1 0.000
    29 H      -4.232381    -1.929385     2.970829 H          1 UNL1 0.000
    30 H      -5.338156    -4.087123     3.054286 H          1 UNL1 0.000
    31 H      -7.816881    -4.230304     3.120595 H          1 UNL1 0.000
    32 H      -9.157950    -2.170562     3.094774 H          1 UNL1 0.000
    33 H      -3.765631     0.612664     5.101510 H          1 UNL1 0.000
    34 H      -1.303031     0.635863     5.112759 H          1 UNL1 0.000
    35 H      -3.775896     0.510128     0.803907 H          1 UNL1 0.000
    36 H       0.847550     0.627367     3.876733 H          1 UNL1 0.000
    37 H       2.081869     0.562114     1.759158 H          1 UNL1 0.000
    38 H      -1.618445     0.475537    -0.429842 H          1 UNL1 0.000
    39 C       1.067978     0.446345    -0.741441 C          1 UNL1 0.000
    40 C       1.390293     1.612118    -1.452843 C          1 UNL1 0.000
    41 C       2.142009     1.545393    -2.630225 C          1 UNL1 0.000
    42 C       2.584745     0.309741    -3.098963 C          1 UNL1 0.000
    43 C       2.239522    -0.859588    -2.427391 C          1 UNL1 0.000
    44 C       1.494722    -0.790746    -1.248251 C          1 UNL1 0.000
    45 O       3.311272     0.176428    -4.250456 O          1 UNL1 0.000
    46 C       4.538110     0.902799    -4.191399 C          1 UNL1 0.000
    47 H       1.055992     2.581656    -1.089105 H          1 UNL1 0.000
    48 H       2.361743     2.457659    -3.175878 H          1 UNL1 0.000
    49 H       2.562170    -1.822697    -2.812407 H          1 UNL1 0.000
    50 H       1.248667    -1.710148    -0.721007 H          1 UNL1 0.000
    51 H       5.167727     0.561599    -5.018810 H          1 UNL1 0.000
    52 H       5.076424     0.706466    -3.256778 H          1 UNL1 0.000
    53 H       4.367613     1.976146    -4.319801 H          1 UNL1 0.000
@<TRIPOS>BOND
     1      1      2   1
     2      1      3   1
     3      3      4   2
     4      4      5   1
     5      5      6   2
     6      6      7   1
     7      7      8   2
     8      8      3   1
     9      2      9   2
    10      9     10   1
    11     10     11   2
    12     11     12   1
    13     12     13   2
    14     13      2   1
    15      4     14   1
    16     14     13   1
    17     15     16   2
    18     16     17   1
    19     17     18   2
    20     18     19   1
    21     19     20   2
    22     20     15   1
    23     18     21   1
    24     21     22   2
    25     22     23   1
    26     23     24   2
    27     24     19   1
    28      1     15   1
    29      5     25   1
    30      6     26   1
    31      7     27   1
    32      8     28   1
    33      9     29   1
    34     10     30   1
    35     11     31   1
    36     12     32   1
    37     16     33   1
    38     17     34   1
    39     20     35   1
    40     21     36   1
    41     22     37   1
    42     24     38   1
    43     39     40   2
    44     40     41   1
    45     41     42   2
    46     42     43   1
    47     43     44   2
    48     44     39   1
    49     45     46   1
    50     42     45   1
    51     40     47   1
    52     41     48   1
    53     43     49   1
    54     44     50   1
    55     46     51   1
    56     46     52   1
    57     46     53   1
    58     23     39   1
