# Produced with molli package
@<TRIPOS>MOLECULE
H_5_T
52 57 0 0 0
SMALL
USER_CHARGES

@<TRIPOS>ATOM
     1 N      -5.398814     0.507471     3.004595 N          1 UNL1 0.000
     2 C      -6.067704    -0.778765     3.017500 C          1 UNL1 0.000
     3 C      -6.108478     1.771227     3.013991 C          1 UNL1 0.000
     4 C      -7.511118     1.856745     3.024810 C          1 UNL1 0.000
     5 C      -8.150986     3.113143     3.038912 C          1 UNL1 0.000
     6 C      -7.420693     4.297487     3.042046 C          1 UNL1 0.000
     7 C      -6.037704     4.239024     3.029182 C          1 UNL1 0.000
     8 C      -5.395164     2.997185     3.014564 C          1 UNL1 0.000
     9 C      -5.315528    -1.981447     3.020501 C          1 UNL1 0.000
    10 C      -5.917759    -3.243303     3.039452 C          1 UNL1 0.000
    11 C      -7.298079    -3.346114     3.054340 C          1 UNL1 0.000
    12 C      -8.065949    -2.185760     3.048293 C          1 UNL1 0.000
    13 C      -7.466804    -0.909386     3.029534 C          1 UNL1 0.000
    14 S      -8.594829     0.455919     3.021917 S          1 UNL1 0.000
    15 C      -3.960203     0.529873     3.013038 C          1 UNL1 0.000
    16 C      -3.264029     0.537792     4.228476 C          1 UNL1 0.000
    17 C      -1.869015     0.547519     4.236903 C          1 UNL1 0.000
    18 C      -1.145812     0.547691     3.033874 C          1 UNL1 0.000
    19 C      -1.839983     0.545087     1.801419 C          1 UNL1 0.000
    20 C      -3.244047     0.537152     1.805428 C          1 UNL1 0.000
    21 C       0.255479     0.546035     3.029926 C          1 UNL1 0.000
    22 C       0.965454     0.535762     1.826756 C          1 UNL1 0.000
    23 C       0.294666     0.534140     0.597186 C          1 UNL1 0.000
    24 C      -1.109116     0.543702     0.600012 C          1 UNL1 0.000
    25 H      -9.238054     3.173903     3.048071 H          1 UNL1 0.000
    26 H      -7.931775     5.256114     3.053911 H          1 UNL1 0.000
    27 H      -5.450146     5.153495     3.030663 H          1 UNL1 0.000
    28 H      -4.308049     3.013656     3.004372 H          1 UNL1 0.000
    29 H      -4.228450    -1.963516     3.008581 H          1 UNL1 0.000
    30 H      -5.301046    -4.138390     3.042536 H          1 UNL1 0.000
    31 H      -7.778039    -4.320655     3.069639 H          1 UNL1 0.000
    32 H      -9.150489    -2.281457     3.058656 H          1 UNL1 0.000
    33 H      -3.813188     0.532680     5.166675 H          1 UNL1 0.000
    34 H      -1.349833     0.550455     5.192850 H          1 UNL1 0.000
    35 H      -3.796848     0.530752     0.868214 H          1 UNL1 0.000
    36 H       0.810336     0.549345     3.965627 H          1 UNL1 0.000
    37 H       2.053523     0.534237     1.852509 H          1 UNL1 0.000
    38 H      -1.638183     0.536288    -0.352232 H          1 UNL1 0.000
    39 C       1.046897     0.513340    -0.661151 C          1 UNL1 0.000
    40 C       1.116392     1.649827    -1.478908 C          1 UNL1 0.000
    41 C       1.849311     1.632139    -2.669920 C          1 UNL1 0.000
    42 C       2.532256     0.477231    -3.065231 C          1 UNL1 0.000
    43 C       2.451106    -0.666266    -2.263750 C          1 UNL1 0.000
    44 C       1.721298    -0.645487    -1.071875 C          1 UNL1 0.000
    45 C       3.301481     0.441372    -4.352294 C          1 UNL1 0.000
    46 H       0.604394     2.563985    -1.185332 H          1 UNL1 0.000
    47 H       1.885665     2.530081    -3.282551 H          1 UNL1 0.000
    48 H       2.957285    -1.582043    -2.560671 H          1 UNL1 0.000
    49 H       1.674689    -1.546486    -0.463479 H          1 UNL1 0.000
    50 H       2.716659    -0.067506    -5.124691 H          1 UNL1 0.000
    51 H       4.251562    -0.086186    -4.216667 H          1 UNL1 0.000
    52 H       3.537066     1.451761    -4.702524 H          1 UNL1 0.000
@<TRIPOS>BOND
     1      1      2   1
     2      1      3   1
     3      3      4   2
     4      4      5   1
     5      5      6   2
     6      6      7   1
     7      7      8   2
     8      8      3   1
     9      2      9   2
    10      9     10   1
    11     10     11   2
    12     11     12   1
    13     12     13   2
    14     13      2   1
    15      4     14   1
    16     14     13   1
    17     15     16   2
    18     16     17   1
    19     17     18   2
    20     18     19   1
    21     19     20   2
    22     20     15   1
    23     18     21   1
    24     21     22   2
    25     22     23   1
    26     23     24   2
    27     24     19   1
    28      1     15   1
    29      5     25   1
    30      6     26   1
    31      7     27   1
    32      8     28   1
    33      9     29   1
    34     10     30   1
    35     11     31   1
    36     12     32   1
    37     16     33   1
    38     17     34   1
    39     20     35   1
    40     21     36   1
    41     22     37   1
    42     24     38   1
    43     39     40   2
    44     40     41   1
    45     41     42   2
    46     42     43   1
    47     43     44   2
    48     44     39   1
    49     42     45   1
    50     40     46   1
    51     41     47   1
    52     43     48   1
    53     44     49   1
    54     45     50   1
    55     45     51   1
    56     45     52   1
    57     23     39   1
