# Produced with molli package
@<TRIPOS>MOLECULE
H_5_L
53 59 0 0 0
SMALL
USER_CHARGES

@<TRIPOS>ATOM
     1 N      -5.337963     0.460051     2.975214 N          1 UNL1 0.000
     2 C      -6.031446    -0.812825     3.018751 C          1 UNL1 0.000
     3 C      -6.026774     1.735484     2.992967 C          1 UNL1 0.000
     4 C      -7.426711     1.844741     2.931457 C          1 UNL1 0.000
     5 C      -8.048453     3.109334     2.971594 C          1 UNL1 0.000
     6 C      -7.302122     4.279087     3.073899 C          1 UNL1 0.000
     7 C      -5.921123     4.197635     3.128898 C          1 UNL1 0.000
     8 C      -5.296321     2.947348     3.085301 C          1 UNL1 0.000
     9 C      -5.305419    -2.026179     3.127232 C          1 UNL1 0.000
    10 C      -5.934886    -3.272756     3.201486 C          1 UNL1 0.000
    11 C      -7.316534    -3.349456     3.159797 C          1 UNL1 0.000
    12 C      -8.058628    -2.178998     3.036686 C          1 UNL1 0.000
    13 C      -7.432012    -0.918049     2.965037 C          1 UNL1 0.000
    14 S      -8.525772     0.463482     2.784639 S          1 UNL1 0.000
    15 C      -3.898977     0.457470     2.987693 C          1 UNL1 0.000
    16 C      -3.205003     0.434945     4.204646 C          1 UNL1 0.000
    17 C      -1.810363     0.418592     4.216425 C          1 UNL1 0.000
    18 C      -1.084607     0.422932     3.015222 C          1 UNL1 0.000
    19 C      -1.774818     0.451196     1.780755 C          1 UNL1 0.000
    20 C      -3.179832     0.470290     1.781861 C          1 UNL1 0.000
    21 C       0.316340     0.392866     3.017149 C          1 UNL1 0.000
    22 C       1.030802     0.381093     1.817138 C          1 UNL1 0.000
    23 C       0.364815     0.406081     0.585541 C          1 UNL1 0.000
    24 C      -1.038475     0.448742     0.581710 C          1 UNL1 0.000
    25 H      -9.133312     3.187946     2.923384 H          1 UNL1 0.000
    26 H      -7.799167     5.244533     3.108098 H          1 UNL1 0.000
    27 H      -5.321507     5.100800     3.207762 H          1 UNL1 0.000
    28 H      -4.210182     2.945194     3.133974 H          1 UNL1 0.000
    29 H      -4.218831    -2.028815     3.163403 H          1 UNL1 0.000
    30 H      -5.338189    -4.176720     3.292926 H          1 UNL1 0.000
    31 H      -7.817117    -4.311939     3.217962 H          1 UNL1 0.000
    32 H      -9.144017    -2.254318     2.995847 H          1 UNL1 0.000
    33 H      -3.756377     0.424848     5.141527 H          1 UNL1 0.000
    34 H      -1.293706     0.395891     5.173343 H          1 UNL1 0.000
    35 H      -3.729916     0.487690     0.843247 H          1 UNL1 0.000
    36 H       0.867274     0.370569     3.954781 H          1 UNL1 0.000
    37 H       2.118419     0.350148     1.846311 H          1 UNL1 0.000
    38 H      -1.562550     0.462995    -0.373114 H          1 UNL1 0.000
    39 C       1.124617     0.364618    -0.668014 C          1 UNL1 0.000
    40 C       1.322403     1.525995    -1.427409 C          1 UNL1 0.000
    41 C       2.065238     1.513632    -2.615302 C          1 UNL1 0.000
    42 C       2.606501     0.291288    -3.026606 C          1 UNL1 0.000
    43 C       2.430090    -0.888885    -2.306141 C          1 UNL1 0.000
    44 C       1.681202    -0.849199    -1.113739 C          1 UNL1 0.000
    45 N       3.370245    -0.019261    -4.129568 N          1 UNL1 0.000
    46 C       3.678057    -1.354270    -4.131965 C          1 UNL1 0.000
    47 C       3.107780    -1.919242    -3.014272 C          1 UNL1 0.000
    48 H       0.899807     2.469954    -1.086311 H          1 UNL1 0.000
    49 H       2.214100     2.423681    -3.186987 H          1 UNL1 0.000
    50 H       1.535471    -1.760994    -0.540339 H          1 UNL1 0.000
    51 H       3.658822     0.646757    -4.832580 H          1 UNL1 0.000
    52 H       4.273762    -1.785362    -4.925191 H          1 UNL1 0.000
    53 H       3.170169    -2.961944    -2.731926 H          1 UNL1 0.000
@<TRIPOS>BOND
     1      1      2   1
     2      1      3   1
     3      3      4   2
     4      4      5   1
     5      5      6   2
     6      6      7   1
     7      7      8   2
     8      8      3   1
     9      2      9   2
    10      9     10   1
    11     10     11   2
    12     11     12   1
    13     12     13   2
    14     13      2   1
    15      4     14   1
    16     14     13   1
    17     15     16   2
    18     16     17   1
    19     17     18   2
    20     18     19   1
    21     19     20   2
    22     20     15   1
    23     18     21   1
    24     21     22   2
    25     22     23   1
    26     23     24   2
    27     24     19   1
    28      1     15   1
    29      5     25   1
    30      6     26   1
    31      7     27   1
    32      8     28   1
    33      9     29   1
    34     10     30   1
    35     11     31   1
    36     12     32   1
    37     16     33   1
    38     17     34   1
    39     20     35   1
    40     21     36   1
    41     22     37   1
    42     24     38   1
    43     39     40   2
    44     40     41   1
    45     41     42   2
    46     42     43   1
    47     43     44   2
    48     44     39   1
    49     42     45   1
    50     45     46   1
    51     46     47   2
    52     47     43   1
    53     40     48   1
    54     41     49   1
    55     44     50   1
    56     45     51   1
    57     46     52   1
    58     47     53   1
    59     23     39   1
