# Produced with molli package
@<TRIPOS>MOLECULE
H_5_K
51 56 0 0 0
SMALL
USER_CHARGES

@<TRIPOS>ATOM
     1 N      -5.389231     0.574454     2.975042 N          1 UNL1 0.000
     2 C      -6.073568    -0.703872     3.001243 C          1 UNL1 0.000
     3 C      -6.083894     1.846390     2.977416 C          1 UNL1 0.000
     4 C      -7.485682     1.948098     2.980244 C          1 UNL1 0.000
     5 C      -8.111361     3.211623     2.984468 C          1 UNL1 0.000
     6 C      -7.367604     4.387444     2.987832 C          1 UNL1 0.000
     7 C      -5.985219     4.313049     2.986560 C          1 UNL1 0.000
     8 C      -5.356530     3.063885     2.981223 C          1 UNL1 0.000
     9 C      -5.335606    -1.915493     3.015416 C          1 UNL1 0.000
    10 C      -5.952196    -3.169848     3.052199 C          1 UNL1 0.000
    11 C      -7.333458    -3.256128     3.072226 C          1 UNL1 0.000
    12 C      -8.087718    -2.086998     3.051104 C          1 UNL1 0.000
    13 C      -7.473929    -0.817991     3.014358 C          1 UNL1 0.000
    14 S      -8.585641     0.559967     2.980277 S          1 UNL1 0.000
    15 C      -3.950441     0.577284     2.974142 C          1 UNL1 0.000
    16 C      -3.245509     0.533533     4.183624 C          1 UNL1 0.000
    17 C      -1.850687     0.501752     4.181278 C          1 UNL1 0.000
    18 C      -1.136717     0.513709     2.972676 C          1 UNL1 0.000
    19 C      -1.839385     0.570237     1.746860 C          1 UNL1 0.000
    20 C      -3.243107     0.602506     1.761562 C          1 UNL1 0.000
    21 C       0.263874     0.464488     2.957276 C          1 UNL1 0.000
    22 C       0.964592     0.467607     1.748584 C          1 UNL1 0.000
    23 C       0.284475     0.527966     0.526038 C          1 UNL1 0.000
    24 C      -1.118101     0.582981     0.539780 C          1 UNL1 0.000
    25 H      -9.197760     3.284777     2.986357 H          1 UNL1 0.000
    26 H      -7.868000     5.351820     2.992446 H          1 UNL1 0.000
    27 H      -5.387814     5.221127     2.990727 H          1 UNL1 0.000
    28 H      -4.269334     3.067639     2.982809 H          1 UNL1 0.000
    29 H      -4.248551    -1.911164     2.998741 H          1 UNL1 0.000
    30 H      -5.346009    -4.072002     3.065209 H          1 UNL1 0.000
    31 H      -7.824748    -4.224696     3.101733 H          1 UNL1 0.000
    32 H      -9.173303    -2.170028     3.063181 H          1 UNL1 0.000
    33 H      -3.787935     0.514336     5.125690 H          1 UNL1 0.000
    34 H      -1.325266     0.459894     5.132820 H          1 UNL1 0.000
    35 H      -3.803326     0.636540     0.829474 H          1 UNL1 0.000
    36 H       0.824502     0.418576     3.888473 H          1 UNL1 0.000
    37 H       2.052037     0.426658     1.767448 H          1 UNL1 0.000
    38 H      -1.655668     0.623935    -0.406684 H          1 UNL1 0.000
    39 C       1.025188     0.525033    -0.738667 C          1 UNL1 0.000
    40 C       1.189859     1.711385    -1.475240 C          1 UNL1 0.000
    41 C       1.913817     1.717073    -2.670191 C          1 UNL1 0.000
    42 C       2.463217     0.519030    -3.135149 C          1 UNL1 0.000
    43 C       2.306281    -0.676743    -2.429649 C          1 UNL1 0.000
    44 C       1.592104    -0.665032    -1.229357 C          1 UNL1 0.000
    45 N       3.219734     0.517472    -4.379430 N          1 UNL1 0.000
    46 O       3.989020     1.467407    -4.577682 O          1 UNL1 0.000
    47 O       3.041924    -0.435266    -5.151153 O          1 UNL1 0.000
    48 H       0.759142     2.642382    -1.109073 H          1 UNL1 0.000
    49 H       2.038598     2.645482    -3.222880 H          1 UNL1 0.000
    50 H       2.735440    -1.607011    -2.794925 H          1 UNL1 0.000
    51 H       1.472321    -1.593297    -0.672174 H          1 UNL1 0.000
@<TRIPOS>BOND
     1      1      2   1
     2      1      3   1
     3      3      4   2
     4      4      5   1
     5      5      6   2
     6      6      7   1
     7      7      8   2
     8      8      3   1
     9      2      9   2
    10      9     10   1
    11     10     11   2
    12     11     12   1
    13     12     13   2
    14     13      2   1
    15      4     14   1
    16     14     13   1
    17     15     16   2
    18     16     17   1
    19     17     18   2
    20     18     19   1
    21     19     20   2
    22     20     15   1
    23     18     21   1
    24     21     22   2
    25     22     23   1
    26     23     24   2
    27     24     19   1
    28      1     15   1
    29      5     25   1
    30      6     26   1
    31      7     27   1
    32      8     28   1
    33      9     29   1
    34     10     30   1
    35     11     31   1
    36     12     32   1
    37     16     33   1
    38     17     34   1
    39     20     35   1
    40     21     36   1
    41     22     37   1
    42     24     38   1
    43     39     40   2
    44     40     41   1
    45     41     42   2
    46     42     43   1
    47     43     44   2
    48     44     39   1
    49     45     46   2
    50     45     47   1
    51     42     45   1
    52     40     48   1
    53     41     49   1
    54     43     50   1
    55     44     51   1
    56     23     39   1
