# Produced with molli package
@<TRIPOS>MOLECULE
H_5_S
54 59 0 0 0
SMALL
USER_CHARGES

@<TRIPOS>ATOM
     1 N      -5.395233     0.571905     2.945981 N          1 UNL1 0.000
     2 C      -6.116878    -0.685632     2.932570 C          1 UNL1 0.000
     3 C      -6.052063     1.863195     2.991655 C          1 UNL1 0.000
     4 C      -7.449652     2.005549     3.032082 C          1 UNL1 0.000
     5 C      -8.037123     3.286324     3.083399 C          1 UNL1 0.000
     6 C      -7.258965     4.439671     3.093482 C          1 UNL1 0.000
     7 C      -5.880046     4.325270     3.050198 C          1 UNL1 0.000
     8 C      -5.289205     3.058835     2.999566 C          1 UNL1 0.000
     9 C      -5.415299    -1.917656     2.884498 C          1 UNL1 0.000
    10 C      -6.068777    -3.153811     2.877315 C          1 UNL1 0.000
    11 C      -7.451615    -3.200464     2.916681 C          1 UNL1 0.000
    12 C      -8.170680    -2.010039     2.960638 C          1 UNL1 0.000
    13 C      -7.519671    -0.759218     2.967929 C          1 UNL1 0.000
    14 S      -8.589931     0.650401     3.027536 S          1 UNL1 0.000
    15 C      -3.956957     0.533325     2.962699 C          1 UNL1 0.000
    16 C      -3.270344     0.481646     4.182318 C          1 UNL1 0.000
    17 C      -1.876481     0.425722     4.200472 C          1 UNL1 0.000
    18 C      -1.144921     0.419589     3.002407 C          1 UNL1 0.000
    19 C      -1.828720     0.478804     1.765989 C          1 UNL1 0.000
    20 C      -3.232035     0.535887     1.760163 C          1 UNL1 0.000
    21 C       0.255104     0.353380     3.008247 C          1 UNL1 0.000
    22 C       0.973940     0.343584     1.810174 C          1 UNL1 0.000
    23 C       0.313074     0.405750     0.577196 C          1 UNL1 0.000
    24 C      -1.089009     0.475211     0.569778 C          1 UNL1 0.000
    25 H      -9.120390     3.391042     3.117055 H          1 UNL1 0.000
    26 H      -7.730021     5.417852     3.134300 H          1 UNL1 0.000
    27 H      -5.255871     5.215168     3.055881 H          1 UNL1 0.000
    28 H      -4.202820     3.031333     2.966318 H          1 UNL1 0.000
    29 H      -4.328898    -1.943860     2.851609 H          1 UNL1 0.000
    30 H      -5.489874    -4.073078     2.841568 H          1 UNL1 0.000
    31 H      -7.971304    -4.154536     2.912996 H          1 UNL1 0.000
    32 H      -9.257872    -2.061625     2.990680 H          1 UNL1 0.000
    33 H      -3.826422     0.480655     5.116581 H          1 UNL1 0.000
    34 H      -1.365690     0.383268     5.159888 H          1 UNL1 0.000
    35 H      -3.777637     0.577240     0.819762 H          1 UNL1 0.000
    36 H       0.801303     0.308530     3.947991 H          1 UNL1 0.000
    37 H       2.060656     0.295090     1.844923 H          1 UNL1 0.000
    38 H      -1.610617     0.521150    -0.385365 H          1 UNL1 0.000
    39 C       1.073367     0.401567    -0.675487 C          1 UNL1 0.000
    40 C       1.281532     1.588119    -1.390631 C          1 UNL1 0.000
    41 C       2.027914     1.587447    -2.573334 C          1 UNL1 0.000
    42 C       2.577406     0.397591    -3.068412 C          1 UNL1 0.000
    43 C       2.359684    -0.794491    -2.369939 C          1 UNL1 0.000
    44 C       1.618856    -0.787864    -1.180944 C          1 UNL1 0.000
    45 C       3.376518     0.458927    -4.329917 C          1 UNL1 0.000
    46 C       4.034622    -0.791832    -4.852768 C          1 UNL1 0.000
    47 O       3.471919     1.521631    -4.940380 O          1 UNL1 0.000
    48 H       0.870946     2.527169    -1.023566 H          1 UNL1 0.000
    49 H       2.180533     2.525697    -3.104488 H          1 UNL1 0.000
    50 H       2.750415    -1.744121    -2.722232 H          1 UNL1 0.000
    51 H       1.463977    -1.723954    -0.646330 H          1 UNL1 0.000
    52 H       3.298531    -1.402085    -5.381748 H          1 UNL1 0.000
    53 H       4.506482    -1.362249    -4.049717 H          1 UNL1 0.000
    54 H       4.829118    -0.508392    -5.550709 H          1 UNL1 0.000
@<TRIPOS>BOND
     1      1      2   1
     2      1      3   1
     3      3      4   2
     4      4      5   1
     5      5      6   2
     6      6      7   1
     7      7      8   2
     8      8      3   1
     9      2      9   2
    10      9     10   1
    11     10     11   2
    12     11     12   1
    13     12     13   2
    14     13      2   1
    15      4     14   1
    16     14     13   1
    17     15     16   2
    18     16     17   1
    19     17     18   2
    20     18     19   1
    21     19     20   2
    22     20     15   1
    23     18     21   1
    24     21     22   2
    25     22     23   1
    26     23     24   2
    27     24     19   1
    28      1     15   1
    29      5     25   1
    30      6     26   1
    31      7     27   1
    32      8     28   1
    33      9     29   1
    34     10     30   1
    35     11     31   1
    36     12     32   1
    37     16     33   1
    38     17     34   1
    39     20     35   1
    40     21     36   1
    41     22     37   1
    42     24     38   1
    43     39     40   2
    44     40     41   1
    45     41     42   2
    46     42     43   1
    47     43     44   2
    48     44     39   1
    49     42     45   1
    50     45     46   1
    51     45     47   2
    52     40     48   1
    53     41     49   1
    54     43     50   1
    55     44     51   1
    56     46     52   1
    57     46     53   1
    58     46     54   1
    59     23     39   1
