# Produced with molli package
@<TRIPOS>MOLECULE
H_5_R
50 55 0 0 0
SMALL
USER_CHARGES

@<TRIPOS>ATOM
     1 N      -5.362237     0.538230     2.960755 N          1 UNL1 0.000
     2 C      -6.023982    -0.752199     2.952178 C          1 UNL1 0.000
     3 C      -6.077845     1.795929     3.043172 C          1 UNL1 0.000
     4 C      -7.479932     1.871719     3.102118 C          1 UNL1 0.000
     5 C      -8.125259     3.121500     3.199847 C          1 UNL1 0.000
     6 C      -7.401162     4.309047     3.235573 C          1 UNL1 0.000
     7 C      -6.019371     4.260731     3.166974 C          1 UNL1 0.000
     8 C      -5.371389     3.025416     3.069820 C          1 UNL1 0.000
     9 C      -5.265492    -1.950302     2.907678 C          1 UNL1 0.000
    10 C      -5.860137    -3.215881     2.905957 C          1 UNL1 0.000
    11 C      -7.239161    -3.327281     2.947603 C          1 UNL1 0.000
    12 C      -8.013153    -2.171755     2.990098 C          1 UNL1 0.000
    13 C      -7.421587    -0.891669     2.993299 C          1 UNL1 0.000
    14 S      -8.556583     0.466205     3.055733 S          1 UNL1 0.000
    15 C      -3.923594     0.567060     2.953538 C          1 UNL1 0.000
    16 C      -3.216568     0.586672     4.162615 C          1 UNL1 0.000
    17 C      -1.821920     0.586352     4.159394 C          1 UNL1 0.000
    18 C      -1.110065     0.559615     2.950323 C          1 UNL1 0.000
    19 C      -1.813866     0.550192     1.723552 C          1 UNL1 0.000
    20 C      -3.218359     0.558325     1.739300 C          1 UNL1 0.000
    21 C       0.290621     0.537989     2.937443 C          1 UNL1 0.000
    22 C       0.991224     0.492213     1.729795 C          1 UNL1 0.000
    23 C       0.311912     0.478860     0.503487 C          1 UNL1 0.000
    24 C      -1.091748     0.522646     0.516599 C          1 UNL1 0.000
    25 H      -9.211664     3.174541     3.248979 H          1 UNL1 0.000
    26 H      -7.916200     5.262520     3.312821 H          1 UNL1 0.000
    27 H      -5.436949     5.178279     3.188362 H          1 UNL1 0.000
    28 H      -4.285709     3.049998     3.015293 H          1 UNL1 0.000
    29 H      -4.179080    -1.925886     2.876339 H          1 UNL1 0.000
    30 H      -5.238809    -4.107134     2.873516 H          1 UNL1 0.000
    31 H      -7.713541    -4.304685     2.948124 H          1 UNL1 0.000
    32 H      -9.096648    -2.274222     3.023211 H          1 UNL1 0.000
    33 H      -3.757665     0.596577     5.105562 H          1 UNL1 0.000
    34 H      -1.295193     0.599583     5.110953 H          1 UNL1 0.000
    35 H      -3.779446     0.546234     0.807177 H          1 UNL1 0.000
    36 H       0.851338     0.554571     3.869551 H          1 UNL1 0.000
    37 H       2.079300     0.481807     1.752055 H          1 UNL1 0.000
    38 H      -1.626034     0.526361    -0.432896 H          1 UNL1 0.000
    39 C       1.051913     0.412438    -0.758651 C          1 UNL1 0.000
    40 N       0.997154     1.523323    -1.538569 N          1 UNL1 0.000
    41 C       1.708244     1.516262    -2.693189 C          1 UNL1 0.000
    42 C       2.467726     0.432564    -3.098109 C          1 UNL1 0.000
    43 C       2.509580    -0.713944    -2.308563 C          1 UNL1 0.000
    44 C       1.785943    -0.721455    -1.117280 C          1 UNL1 0.000
    45 N       3.218929     0.510632    -4.331689 N          1 UNL1 0.000
    46 O       2.708336     1.127685    -5.273210 O          1 UNL1 0.000
    47 O       4.324867    -0.049932    -4.357429 O          1 UNL1 0.000
    48 H       1.649027     2.434335    -3.272116 H          1 UNL1 0.000
    49 H       3.087553    -1.586143    -2.603368 H          1 UNL1 0.000
    50 H       1.791957    -1.599531    -0.477449 H          1 UNL1 0.000
@<TRIPOS>BOND
     1      1      2   1
     2      1      3   1
     3      3      4   2
     4      4      5   1
     5      5      6   2
     6      6      7   1
     7      7      8   2
     8      8      3   1
     9      2      9   2
    10      9     10   1
    11     10     11   2
    12     11     12   1
    13     12     13   2
    14     13      2   1
    15      4     14   1
    16     14     13   1
    17     15     16   2
    18     16     17   1
    19     17     18   2
    20     18     19   1
    21     19     20   2
    22     20     15   1
    23     18     21   1
    24     21     22   2
    25     22     23   1
    26     23     24   2
    27     24     19   1
    28      1     15   1
    29      5     25   1
    30      6     26   1
    31      7     27   1
    32      8     28   1
    33      9     29   1
    34     10     30   1
    35     11     31   1
    36     12     32   1
    37     16     33   1
    38     17     34   1
    39     20     35   1
    40     21     36   1
    41     22     37   1
    42     24     38   1
    43     39     40   2
    44     40     41   1
    45     41     42   2
    46     42     43   1
    47     43     44   2
    48     44     39   1
    49     45     46   2
    50     45     47   1
    51     42     45   1
    52     41     48   1
    53     43     49   1
    54     44     50   1
    55     23     39   1
