# Produced with molli package
@<TRIPOS>MOLECULE
H_5_M
50 55 0 0 0
SMALL
USER_CHARGES

@<TRIPOS>ATOM
     1 N      -5.385893     0.479389     2.960465 N          1 UNL1 0.000
     2 C      -6.058820    -0.804882     3.000015 C          1 UNL1 0.000
     3 C      -6.093517     1.743685     3.027791 C          1 UNL1 0.000
     4 C      -7.496322     1.831345     3.035382 C          1 UNL1 0.000
     5 C      -8.135093     3.084531     3.131762 C          1 UNL1 0.000
     6 C      -7.403304     4.264648     3.217464 C          1 UNL1 0.000
     7 C      -6.020362     4.205557     3.195929 C          1 UNL1 0.000
     8 C      -5.379003     2.966702     3.097699 C          1 UNL1 0.000
     9 C      -5.311282    -2.008764     3.054738 C          1 UNL1 0.000
    10 C      -5.919118    -3.266704     3.119174 C          1 UNL1 0.000
    11 C      -7.300086    -3.364407     3.124575 C          1 UNL1 0.000
    12 C      -8.063496    -2.203130     3.060582 C          1 UNL1 0.000
    13 C      -7.458788    -0.931004     2.998477 C          1 UNL1 0.000
    14 S      -8.580420     0.436604     2.910294 S          1 UNL1 0.000
    15 C      -3.946519     0.498763     2.964575 C          1 UNL1 0.000
    16 C      -3.249450     0.541641     4.179131 C          1 UNL1 0.000
    17 C      -1.855209     0.561341     4.187613 C          1 UNL1 0.000
    18 C      -1.132355     0.535466     2.985285 C          1 UNL1 0.000
    19 C      -1.823890     0.492138     1.752073 C          1 UNL1 0.000
    20 C      -3.230044     0.474508     1.756715 C          1 UNL1 0.000
    21 C       0.268542     0.550623     2.987318 C          1 UNL1 0.000
    22 C       0.983571     0.520014     1.788310 C          1 UNL1 0.000
    23 C       0.318083     0.477969     0.556912 C          1 UNL1 0.000
    24 C      -1.086375     0.466488     0.552708 C          1 UNL1 0.000
    25 H      -9.222157     3.145943     3.140930 H          1 UNL1 0.000
    26 H      -7.913246     5.220778     3.295992 H          1 UNL1 0.000
    27 H      -5.432045     5.117498     3.257119 H          1 UNL1 0.000
    28 H      -4.292089     2.983242     3.083617 H          1 UNL1 0.000
    29 H      -4.224212    -1.994667     3.056482 H          1 UNL1 0.000
    30 H      -5.306482    -4.163291     3.167467 H          1 UNL1 0.000
    31 H      -7.784087    -4.335725     3.176662 H          1 UNL1 0.000
    32 H      -9.148511    -2.294444     3.061047 H          1 UNL1 0.000
    33 H      -3.798531     0.560478     5.117373 H          1 UNL1 0.000
    34 H      -1.337126     0.596017     5.143387 H          1 UNL1 0.000
    35 H      -3.782906     0.440409     0.820258 H          1 UNL1 0.000
    36 H       0.818992     0.586431     3.924937 H          1 UNL1 0.000
    37 H       2.071432     0.535418     1.820507 H          1 UNL1 0.000
    38 H      -1.612037     0.429971    -0.400570 H          1 UNL1 0.000
    39 C       1.083240     0.448287    -0.693059 C          1 UNL1 0.000
    40 C       1.233745     1.606616    -1.470298 C          1 UNL1 0.000
    41 C       1.998163     1.588300    -2.641816 C          1 UNL1 0.000
    42 C       2.620238     0.406676    -3.055138 C          1 UNL1 0.000
    43 C       2.470473    -0.755968    -2.294111 C          1 UNL1 0.000
    44 C       1.708521    -0.732985    -1.121455 C          1 UNL1 0.000
    45 C       3.413526     0.388739    -4.249208 C          1 UNL1 0.000
    46 N       4.058801     0.374293    -5.213945 N          1 UNL1 0.000
    47 H       0.765450     2.537786    -1.155192 H          1 UNL1 0.000
    48 H       2.108097     2.503105    -3.221370 H          1 UNL1 0.000
    49 H       2.947355    -1.684587    -2.602458 H          1 UNL1 0.000
    50 H       1.605422    -1.645656    -0.536459 H          1 UNL1 0.000
@<TRIPOS>BOND
     1      1      2   1
     2      1      3   1
     3      3      4   2
     4      4      5   1
     5      5      6   2
     6      6      7   1
     7      7      8   2
     8      8      3   1
     9      2      9   2
    10      9     10   1
    11     10     11   2
    12     11     12   1
    13     12     13   2
    14     13      2   1
    15      4     14   1
    16     14     13   1
    17     15     16   2
    18     16     17   1
    19     17     18   2
    20     18     19   1
    21     19     20   2
    22     20     15   1
    23     18     21   1
    24     21     22   2
    25     22     23   1
    26     23     24   2
    27     24     19   1
    28      1     15   1
    29      5     25   1
    30      6     26   1
    31      7     27   1
    32      8     28   1
    33      9     29   1
    34     10     30   1
    35     11     31   1
    36     12     32   1
    37     16     33   1
    38     17     34   1
    39     20     35   1
    40     21     36   1
    41     22     37   1
    42     24     38   1
    43     39     40   2
    44     40     41   1
    45     41     42   2
    46     42     43   1
    47     43     44   2
    48     44     39   1
    49     45     46   3
    50     42     45   1
    51     40     47   1
    52     41     48   1
    53     43     49   1
    54     44     50   1
    55     23     39   1
