# Produced with molli package
@<TRIPOS>MOLECULE
H_5_O
48 53 0 0 0
SMALL
USER_CHARGES

@<TRIPOS>ATOM
     1 N      -5.413876     0.545947     3.003901 N          1 UNL1 0.000
     2 C      -6.095743    -0.733276     3.029259 C          1 UNL1 0.000
     3 C      -6.110824     1.816581     2.988847 C          1 UNL1 0.000
     4 C      -7.512511     1.915922     2.973016 C          1 UNL1 0.000
     5 C      -8.139984     3.178585     2.966997 C          1 UNL1 0.000
     6 C      -7.398021     4.355639     2.975377 C          1 UNL1 0.000
     7 C      -6.015665     4.283440     2.986485 C          1 UNL1 0.000
     8 C      -5.385391     3.035321     2.991718 C          1 UNL1 0.000
     9 C      -5.356024    -1.942859     3.074275 C          1 UNL1 0.000
    10 C      -5.971200    -3.198249     3.105716 C          1 UNL1 0.000
    11 C      -7.352469    -3.287470     3.090813 C          1 UNL1 0.000
    12 C      -8.108244    -2.120110     3.043986 C          1 UNL1 0.000
    13 C      -7.496004    -0.850154     3.013684 C          1 UNL1 0.000
    14 S      -8.609685     0.525615     2.953693 S          1 UNL1 0.000
    15 C      -3.975178     0.554225     3.015541 C          1 UNL1 0.000
    16 C      -3.280569     0.581087     4.231732 C          1 UNL1 0.000
    17 C      -1.885405     0.573012     4.242260 C          1 UNL1 0.000
    18 C      -1.160500     0.534411     3.040784 C          1 UNL1 0.000
    19 C      -1.853589     0.516424     1.807869 C          1 UNL1 0.000
    20 C      -3.257311     0.528154     1.809460 C          1 UNL1 0.000
    21 C       0.240839     0.511784     3.038226 C          1 UNL1 0.000
    22 C       0.951580     0.459483     1.836071 C          1 UNL1 0.000
    23 C       0.281566     0.439414     0.605113 C          1 UNL1 0.000
    24 C      -1.122092     0.480773     0.607999 C          1 UNL1 0.000
    25 H      -9.226321     3.250149     2.955083 H          1 UNL1 0.000
    26 H      -7.899382     5.319412     2.971171 H          1 UNL1 0.000
    27 H      -5.418742     5.191856     2.990565 H          1 UNL1 0.000
    28 H      -4.298036     3.041222     2.998556 H          1 UNL1 0.000
    29 H      -4.268888    -1.935302     3.087639 H          1 UNL1 0.000
    30 H      -5.363853    -4.098954     3.141830 H          1 UNL1 0.000
    31 H      -7.842552    -4.256776     3.114751 H          1 UNL1 0.000
    32 H      -9.193652    -2.205033     3.031239 H          1 UNL1 0.000
    33 H      -3.831155     0.605393     5.168742 H          1 UNL1 0.000
    34 H      -1.367557     0.593143     5.198703 H          1 UNL1 0.000
    35 H      -3.808187     0.510935     0.871172 H          1 UNL1 0.000
    36 H       0.794609     0.534753     3.974350 H          1 UNL1 0.000
    37 H       2.039402     0.450028     1.863383 H          1 UNL1 0.000
    38 H      -1.646886     0.478700    -0.346984 H          1 UNL1 0.000
    39 C       1.025340     0.368473    -0.654699 C          1 UNL1 0.000
    40 N       0.987248     1.480862    -1.427620 N          1 UNL1 0.000
    41 C       1.679215     1.453052    -2.587790 C          1 UNL1 0.000
    42 C       2.402102     0.357818    -3.029921 C          1 UNL1 0.000
    43 C       2.420257    -0.780467    -2.233963 C          1 UNL1 0.000
    44 C       1.726772    -0.777161    -1.026665 C          1 UNL1 0.000
    45 H       1.636240     2.367725    -3.172205 H          1 UNL1 0.000
    46 H       2.936444     0.391365    -3.972631 H          1 UNL1 0.000
    47 H       2.968683    -1.663562    -2.548671 H          1 UNL1 0.000
    48 H       1.725293    -1.657517    -0.392001 H          1 UNL1 0.000
@<TRIPOS>BOND
     1      1      2   1
     2      1      3   1
     3      3      4   2
     4      4      5   1
     5      5      6   2
     6      6      7   1
     7      7      8   2
     8      8      3   1
     9      2      9   2
    10      9     10   1
    11     10     11   2
    12     11     12   1
    13     12     13   2
    14     13      2   1
    15      4     14   1
    16     14     13   1
    17     15     16   2
    18     16     17   1
    19     17     18   2
    20     18     19   1
    21     19     20   2
    22     20     15   1
    23     18     21   1
    24     21     22   2
    25     22     23   1
    26     23     24   2
    27     24     19   1
    28      1     15   1
    29      5     25   1
    30      6     26   1
    31      7     27   1
    32      8     28   1
    33      9     29   1
    34     10     30   1
    35     11     31   1
    36     12     32   1
    37     16     33   1
    38     17     34   1
    39     20     35   1
    40     21     36   1
    41     22     37   1
    42     24     38   1
    43     39     40   2
    44     40     41   1
    45     41     42   2
    46     42     43   1
    47     43     44   2
    48     44     39   1
    49     41     45   1
    50     42     46   1
    51     43     47   1
    52     44     48   1
    53     23     39   1
