# Produced with molli package
@<TRIPOS>MOLECULE
H_6_S
54 59 0 0 0
SMALL
USER_CHARGES

@<TRIPOS>ATOM
     1 N      -3.839493     0.521819     0.500740 N          1 UNL1 0.000
     2 C      -4.538949    -0.748577     0.513524 C          1 UNL1 0.000
     3 C      -4.519300     1.802793     0.522136 C          1 UNL1 0.000
     4 C      -5.917949     1.920740     0.587762 C          1 UNL1 0.000
     5 C      -6.529417     3.191147     0.582339 C          1 UNL1 0.000
     6 C      -5.774018     4.357744     0.516275 C          1 UNL1 0.000
     7 C      -4.393858     4.267229     0.459563 C          1 UNL1 0.000
     8 C      -3.779432     3.011239     0.463819 C          1 UNL1 0.000
     9 C      -3.818207    -1.967646     0.439792 C          1 UNL1 0.000
    10 C      -4.451669    -3.214133     0.435637 C          1 UNL1 0.000
    11 C      -5.832289    -3.284166     0.508139 C          1 UNL1 0.000
    12 C      -6.569422    -2.106571     0.584400 C          1 UNL1 0.000
    13 C      -5.938879    -0.845529     0.586760 C          1 UNL1 0.000
    14 S      -7.029761     0.545933     0.686464 S          1 UNL1 0.000
    15 C      -2.391791     0.510764     0.432456 C          1 UNL1 0.000
    16 C      -1.675226     0.490322     1.639433 C          1 UNL1 0.000
    17 C      -0.285443     0.482347     1.628298 C          1 UNL1 0.000
    18 C       0.424816     0.494525     0.415883 C          1 UNL1 0.000
    19 C      -0.284463     0.511845    -0.822726 C          1 UNL1 0.000
    20 C      -1.705389     0.520710    -0.815441 C          1 UNL1 0.000
    21 C       0.373026     0.521248    -2.077456 C          1 UNL1 0.000
    22 C      -0.328666     0.539088    -3.283184 C          1 UNL1 0.000
    23 C      -1.713151     0.548609    -3.270968 C          1 UNL1 0.000
    24 C      -2.390547     0.539311    -2.053147 C          1 UNL1 0.000
    25 H      -7.613848     3.277228     0.628869 H          1 UNL1 0.000
    26 H      -6.263575     5.327630     0.509785 H          1 UNL1 0.000
    27 H      -3.787174     5.167611     0.407867 H          1 UNL1 0.000
    28 H      -2.693648     3.002411     0.411600 H          1 UNL1 0.000
    29 H      -2.733016    -1.975237     0.374951 H          1 UNL1 0.000
    30 H      -3.859149    -4.123249     0.372466 H          1 UNL1 0.000
    31 H      -6.336227    -4.246676     0.504230 H          1 UNL1 0.000
    32 H      -7.654530    -2.176576     0.640718 H          1 UNL1 0.000
    33 H      -2.210519     0.481035     2.586036 H          1 UNL1 0.000
    34 H       0.250780     0.466384     2.575623 H          1 UNL1 0.000
    35 H       1.460173     0.512375    -2.131619 H          1 UNL1 0.000
    36 H       0.210799     0.544148    -4.226464 H          1 UNL1 0.000
    37 H      -2.271125     0.562051    -4.203218 H          1 UNL1 0.000
    38 H      -3.479138     0.546099    -2.076789 H          1 UNL1 0.000
    39 C       1.896058     0.494172     0.473233 C          1 UNL1 0.000
    40 C       2.615052    -0.706975     0.452221 C          1 UNL1 0.000
    41 C       4.013609    -0.699319     0.465382 C          1 UNL1 0.000
    42 C       4.727096     0.508528     0.502827 C          1 UNL1 0.000
    43 C       4.012107     1.710024     0.534305 C          1 UNL1 0.000
    44 C       2.610582     1.699614     0.524007 C          1 UNL1 0.000
    45 C       6.222123     0.432266     0.493688 C          1 UNL1 0.000
    46 C       7.070538     1.676525     0.563086 C          1 UNL1 0.000
    47 O       6.765627    -0.671089     0.414086 O          1 UNL1 0.000
    48 H       2.089077    -1.659124     0.410143 H          1 UNL1 0.000
    49 H       4.544600    -1.650043     0.437163 H          1 UNL1 0.000
    50 H       4.501332     2.677088     0.556672 H          1 UNL1 0.000
    51 H       2.072122     2.646247     0.539986 H          1 UNL1 0.000
    52 H       7.796876     1.555641     1.372658 H          1 UNL1 0.000
    53 H       6.512875     2.587941     0.766493 H          1 UNL1 0.000
    54 H       7.599610     1.796148    -0.386621 H          1 UNL1 0.000
@<TRIPOS>BOND
     1      1      2   1
     2      1      3   1
     3      3      4   2
     4      4      5   1
     5      5      6   2
     6      6      7   1
     7      7      8   2
     8      8      3   1
     9      2      9   2
    10      9     10   1
    11     10     11   2
    12     11     12   1
    13     12     13   2
    14     13      2   1
    15      4     14   1
    16     14     13   1
    17     15     16   2
    18     16     17   1
    19     17     18   2
    20     18     19   1
    21     19     20   2
    22     20     15   1
    23     19     21   1
    24     21     22   2
    25     22     23   1
    26     23     24   2
    27     24     20   1
    28      1     15   1
    29      5     25   1
    30      6     26   1
    31      7     27   1
    32      8     28   1
    33      9     29   1
    34     10     30   1
    35     11     31   1
    36     12     32   1
    37     16     33   1
    38     17     34   1
    39     21     35   1
    40     22     36   1
    41     23     37   1
    42     24     38   1
    43     39     40   2
    44     40     41   1
    45     41     42   2
    46     42     43   1
    47     43     44   2
    48     44     39   1
    49     42     45   1
    50     45     46   1
    51     45     47   2
    52     40     48   1
    53     41     49   1
    54     43     50   1
    55     44     51   1
    56     46     52   1
    57     46     53   1
    58     46     54   1
    59     18     39   1
