# Produced with molli package
@<TRIPOS>MOLECULE
H_6_N
46 51 0 0 0
SMALL
USER_CHARGES

@<TRIPOS>ATOM
     1 N      -3.933980     0.548718     0.440078 N          1 UNL1 0.000
     2 C      -4.610895    -0.734258     0.457211 C          1 UNL1 0.000
     3 C      -4.635432     1.817245     0.461071 C          1 UNL1 0.000
     4 C      -6.037548     1.910668     0.480078 C          1 UNL1 0.000
     5 C      -6.670199     3.170478     0.500040 C          1 UNL1 0.000
     6 C      -5.933014     4.350426     0.500651 C          1 UNL1 0.000
     7 C      -4.550421     4.283867     0.477451 C          1 UNL1 0.000
     8 C      -3.914871     3.038437     0.455677 C          1 UNL1 0.000
     9 C      -3.865671    -1.941159     0.457730 C          1 UNL1 0.000
    10 C      -4.475094    -3.199329     0.464622 C          1 UNL1 0.000
    11 C      -5.855937    -3.293872     0.472993 C          1 UNL1 0.000
    12 C      -6.616964    -2.128931     0.475582 C          1 UNL1 0.000
    13 C      -6.010439    -0.856083     0.468530 C          1 UNL1 0.000
    14 S      -7.129444     0.516260     0.471335 S          1 UNL1 0.000
    15 C      -2.484752     0.559511     0.414100 C          1 UNL1 0.000
    16 C      -1.805199     0.611720     1.643258 C          1 UNL1 0.000
    17 C      -0.417331     0.590772     1.676064 C          1 UNL1 0.000
    18 C       0.314294     0.511767     0.483223 C          1 UNL1 0.000
    19 C      -0.342380     0.471524    -0.779268 C          1 UNL1 0.000
    20 C      -1.762151     0.496909    -0.813656 C          1 UNL1 0.000
    21 C       0.354634     0.402676    -2.011481 C          1 UNL1 0.000
    22 C      -0.311663     0.356837    -3.236357 C          1 UNL1 0.000
    23 C      -1.696244     0.381771    -3.265786 C          1 UNL1 0.000
    24 C      -2.410067     0.452484    -2.070449 C          1 UNL1 0.000
    25 H      -7.756890     3.237583     0.513682 H          1 UNL1 0.000
    26 H      -6.438547     5.312006     0.515942 H          1 UNL1 0.000
    27 H      -3.958072     5.195270     0.473802 H          1 UNL1 0.000
    28 H      -2.828099     3.048656     0.430655 H          1 UNL1 0.000
    29 H      -2.778672    -1.930370     0.448620 H          1 UNL1 0.000
    30 H      -3.863526    -4.097940     0.461292 H          1 UNL1 0.000
    31 H      -6.341513    -4.265739     0.476951 H          1 UNL1 0.000
    32 H      -7.702049    -2.218512     0.482121 H          1 UNL1 0.000
    33 H      -2.369560     0.660036     2.571599 H          1 UNL1 0.000
    34 H       0.094079     0.625208     2.635824 H          1 UNL1 0.000
    35 H       1.442964     0.383106    -2.029582 H          1 UNL1 0.000
    36 H       0.254825     0.301697    -4.162113 H          1 UNL1 0.000
    37 H      -2.226309     0.346186    -4.213753 H          1 UNL1 0.000
    38 H      -3.497327     0.471596    -2.127117 H          1 UNL1 0.000
    39 C       1.767155     0.466288     0.596119 C          1 UNL1 0.000
    40 C       2.441204    -0.737620     0.654185 C          1 UNL1 0.000
    41 S       4.134762    -0.524273     0.783704 S          1 UNL1 0.000
    42 C       3.976772     1.179387     0.774392 C          1 UNL1 0.000
    43 C       2.661533     1.577609     0.673825 C          1 UNL1 0.000
    44 H       2.025444    -1.736004     0.621000 H          1 UNL1 0.000
    45 H       4.855491     1.805785     0.843450 H          1 UNL1 0.000
    46 H       2.355136     2.616486     0.651257 H          1 UNL1 0.000
@<TRIPOS>BOND
     1      1      2   1
     2      1      3   1
     3      3      4   2
     4      4      5   1
     5      5      6   2
     6      6      7   1
     7      7      8   2
     8      8      3   1
     9      2      9   2
    10      9     10   1
    11     10     11   2
    12     11     12   1
    13     12     13   2
    14     13      2   1
    15      4     14   1
    16     14     13   1
    17     15     16   2
    18     16     17   1
    19     17     18   2
    20     18     19   1
    21     19     20   2
    22     20     15   1
    23     19     21   1
    24     21     22   2
    25     22     23   1
    26     23     24   2
    27     24     20   1
    28      1     15   1
    29      5     25   1
    30      6     26   1
    31      7     27   1
    32      8     28   1
    33      9     29   1
    34     10     30   1
    35     11     31   1
    36     12     32   1
    37     16     33   1
    38     17     34   1
    39     21     35   1
    40     22     36   1
    41     23     37   1
    42     24     38   1
    43     39     40   2
    44     40     41   1
    45     41     42   1
    46     42     43   2
    47     43     39   1
    48     40     44   1
    49     42     45   1
    50     43     46   1
    51     18     39   1
