# Produced with molli package
@<TRIPOS>MOLECULE
H_6_L
53 59 0 0 0
SMALL
USER_CHARGES

@<TRIPOS>ATOM
     1 N      -3.848512     0.419185     0.510433 N          1 UNL1 0.000
     2 C      -4.538773    -0.855467     0.531473 C          1 UNL1 0.000
     3 C      -4.535712     1.696060     0.540439 C          1 UNL1 0.000
     4 C      -5.935091     1.805726     0.600186 C          1 UNL1 0.000
     5 C      -6.552636     3.073217     0.615018 C          1 UNL1 0.000
     6 C      -5.802798     4.244643     0.572359 C          1 UNL1 0.000
     7 C      -4.422249     4.162013     0.515942 C          1 UNL1 0.000
     8 C      -3.801929     2.909203     0.500860 C          1 UNL1 0.000
     9 C      -3.808580    -2.069969     0.481006 C          1 UNL1 0.000
    10 C      -4.433099    -3.320975     0.488826 C          1 UNL1 0.000
    11 C      -5.813945    -3.399994     0.547920 C          1 UNL1 0.000
    12 C      -6.560244    -2.226812     0.599607 C          1 UNL1 0.000
    13 C      -5.938681    -0.961345     0.592014 C          1 UNL1 0.000
    14 S      -7.040617     0.423544     0.660633 S          1 UNL1 0.000
    15 C      -2.400638     0.419919     0.447447 C          1 UNL1 0.000
    16 C      -1.689130     0.413975     1.657548 C          1 UNL1 0.000
    17 C      -0.300123     0.437239     1.651661 C          1 UNL1 0.000
    18 C       0.414701     0.467592     0.442154 C          1 UNL1 0.000
    19 C      -0.288935     0.467342    -0.799235 C          1 UNL1 0.000
    20 C      -1.709727     0.441613    -0.797876 C          1 UNL1 0.000
    21 C       0.374025     0.496042    -2.050507 C          1 UNL1 0.000
    22 C      -0.322832     0.497100    -3.259319 C          1 UNL1 0.000
    23 C      -1.707377     0.469836    -3.253312 C          1 UNL1 0.000
    24 C      -2.389943     0.442993    -2.038463 C          1 UNL1 0.000
    25 H      -7.637552     3.153314     0.659136 H          1 UNL1 0.000
    26 H      -6.296714     5.212226     0.582432 H          1 UNL1 0.000
    27 H      -3.819223     5.065677     0.480518 H          1 UNL1 0.000
    28 H      -2.715838     2.907164     0.450781 H          1 UNL1 0.000
    29 H      -2.722652    -2.069682     0.427746 H          1 UNL1 0.000
    30 H      -3.833409    -4.226497     0.445710 H          1 UNL1 0.000
    31 H      -6.311027    -4.366026     0.552581 H          1 UNL1 0.000
    32 H      -7.645380    -2.303713     0.644866 H          1 UNL1 0.000
    33 H      -2.227397     0.397855     2.602161 H          1 UNL1 0.000
    34 H       0.234320     0.438024     2.600184 H          1 UNL1 0.000
    35 H       1.461664     0.519917    -2.097542 H          1 UNL1 0.000
    36 H       0.220890     0.520359    -4.199803 H          1 UNL1 0.000
    37 H      -2.261232     0.470810    -4.188047 H          1 UNL1 0.000
    38 H      -3.478194     0.423448    -2.066355 H          1 UNL1 0.000
    39 C       1.885717     0.508410     0.510830 C          1 UNL1 0.000
    40 C       2.632140    -0.678537     0.518819 C          1 UNL1 0.000
    41 C       4.031428    -0.668549     0.562634 C          1 UNL1 0.000
    42 C       4.667252     0.576455     0.600051 C          1 UNL1 0.000
    43 C       3.964738     1.780695     0.601370 C          1 UNL1 0.000
    44 C       2.557220     1.744763     0.559706 C          1 UNL1 0.000
    45 N       6.007444     0.890263     0.638915 N          1 UNL1 0.000
    46 C       6.174932     2.249599     0.664518 C          1 UNL1 0.000
    47 C       4.926270     2.827669     0.643906 C          1 UNL1 0.000
    48 H       2.116799    -1.637215     0.481135 H          1 UNL1 0.000
    49 H       4.593938    -1.596282     0.562145 H          1 UNL1 0.000
    50 H       1.994002     2.674329     0.553992 H          1 UNL1 0.000
    51 H       6.755009     0.210351     0.644716 H          1 UNL1 0.000
    52 H       7.163940     2.686502     0.694540 H          1 UNL1 0.000
    53 H       4.722392     3.890301     0.655170 H          1 UNL1 0.000
@<TRIPOS>BOND
     1      1      2   1
     2      1      3   1
     3      3      4   2
     4      4      5   1
     5      5      6   2
     6      6      7   1
     7      7      8   2
     8      8      3   1
     9      2      9   2
    10      9     10   1
    11     10     11   2
    12     11     12   1
    13     12     13   2
    14     13      2   1
    15      4     14   1
    16     14     13   1
    17     15     16   2
    18     16     17   1
    19     17     18   2
    20     18     19   1
    21     19     20   2
    22     20     15   1
    23     19     21   1
    24     21     22   2
    25     22     23   1
    26     23     24   2
    27     24     20   1
    28      1     15   1
    29      5     25   1
    30      6     26   1
    31      7     27   1
    32      8     28   1
    33      9     29   1
    34     10     30   1
    35     11     31   1
    36     12     32   1
    37     16     33   1
    38     17     34   1
    39     21     35   1
    40     22     36   1
    41     23     37   1
    42     24     38   1
    43     39     40   2
    44     40     41   1
    45     41     42   2
    46     42     43   1
    47     43     44   2
    48     44     39   1
    49     42     45   1
    50     45     46   1
    51     46     47   2
    52     47     43   1
    53     40     48   1
    54     41     49   1
    55     44     50   1
    56     45     51   1
    57     46     52   1
    58     47     53   1
    59     18     39   1
