# Produced with molli package
@<TRIPOS>MOLECULE
H_6_R
50 55 0 0 0
SMALL
USER_CHARGES

@<TRIPOS>ATOM
     1 N      -3.832059     0.495492     0.456468 N          1 UNL1 0.000
     2 C      -4.535445    -0.772349     0.475985 C          1 UNL1 0.000
     3 C      -4.506601     1.779104     0.483499 C          1 UNL1 0.000
     4 C      -5.906177     1.902518     0.503323 C          1 UNL1 0.000
     5 C      -6.511327     3.175748     0.528416 C          1 UNL1 0.000
     6 C      -5.748839     4.339647     0.533532 C          1 UNL1 0.000
     7 C      -4.368135     4.243493     0.510366 C          1 UNL1 0.000
     8 C      -3.759890     2.984826     0.484086 C          1 UNL1 0.000
     9 C      -3.815831    -1.994366     0.476469 C          1 UNL1 0.000
    10 C      -4.452168    -3.239300     0.486153 C          1 UNL1 0.000
    11 C      -5.834881    -3.304481     0.495626 C          1 UNL1 0.000
    12 C      -6.571034    -2.123738     0.496895 C          1 UNL1 0.000
    13 C      -5.937445    -0.864274     0.488392 C          1 UNL1 0.000
    14 S      -7.027233     0.531562     0.487579 S          1 UNL1 0.000
    15 C      -2.383873     0.480207     0.407623 C          1 UNL1 0.000
    16 C      -1.683270     0.508733     1.623486 C          1 UNL1 0.000
    17 C      -0.294193     0.498864     1.629332 C          1 UNL1 0.000
    18 C       0.433000     0.453374     0.426670 C          1 UNL1 0.000
    19 C      -0.260170     0.440223    -0.821405 C          1 UNL1 0.000
    20 C      -1.681734     0.447503    -0.831000 C          1 UNL1 0.000
    21 C       0.410705     0.431550    -2.069872 C          1 UNL1 0.000
    22 C      -0.277918     0.412107    -3.283331 C          1 UNL1 0.000
    23 C      -1.662356     0.406821    -3.286351 C          1 UNL1 0.000
    24 C      -2.352991     0.427628    -2.076176 C          1 UNL1 0.000
    25 H      -7.596237     3.266505     0.542481 H          1 UNL1 0.000
    26 H      -6.233047     5.312031     0.552669 H          1 UNL1 0.000
    27 H      -3.755381     5.141399     0.510611 H          1 UNL1 0.000
    28 H      -2.672827     2.973089     0.460958 H          1 UNL1 0.000
    29 H      -2.729038    -2.005129     0.465927 H          1 UNL1 0.000
    30 H      -3.860680    -4.151177     0.484119 H          1 UNL1 0.000
    31 H      -6.341442    -4.265618     0.501187 H          1 UNL1 0.000
    32 H      -7.657846    -2.189971     0.503321 H          1 UNL1 0.000
    33 H      -2.230152     0.543740     2.562808 H          1 UNL1 0.000
    34 H       0.231915     0.530132     2.582110 H          1 UNL1 0.000
    35 H       1.497653     0.456259    -2.115373 H          1 UNL1 0.000
    36 H       0.270905     0.409007    -4.221325 H          1 UNL1 0.000
    37 H      -2.210296     0.395692    -4.224679 H          1 UNL1 0.000
    38 H      -3.441343     0.433533    -2.112231 H          1 UNL1 0.000
    39 C       1.899437     0.411020     0.510808 C          1 UNL1 0.000
    40 N       2.510904     1.594257     0.774881 N          1 UNL1 0.000
    41 C       3.865972     1.602901     0.835684 C          1 UNL1 0.000
    42 C       4.636260     0.467340     0.647023 C          1 UNL1 0.000
    43 C       4.003817    -0.749719     0.392793 C          1 UNL1 0.000
    44 C       2.611005    -0.776718     0.328101 C          1 UNL1 0.000
    45 N       6.084917     0.559950     0.706777 N          1 UNL1 0.000
    46 O       6.737657    -0.370038     0.211639 O          1 UNL1 0.000
    47 O       6.576066     1.559766     1.246300 O          1 UNL1 0.000
    48 H       4.301987     2.578609     1.035868 H          1 UNL1 0.000
    49 H       4.570024    -1.666101     0.244618 H          1 UNL1 0.000
    50 H       2.087399    -1.707837     0.129381 H          1 UNL1 0.000
@<TRIPOS>BOND
     1      1      2   1
     2      1      3   1
     3      3      4   2
     4      4      5   1
     5      5      6   2
     6      6      7   1
     7      7      8   2
     8      8      3   1
     9      2      9   2
    10      9     10   1
    11     10     11   2
    12     11     12   1
    13     12     13   2
    14     13      2   1
    15      4     14   1
    16     14     13   1
    17     15     16   2
    18     16     17   1
    19     17     18   2
    20     18     19   1
    21     19     20   2
    22     20     15   1
    23     19     21   1
    24     21     22   2
    25     22     23   1
    26     23     24   2
    27     24     20   1
    28      1     15   1
    29      5     25   1
    30      6     26   1
    31      7     27   1
    32      8     28   1
    33      9     29   1
    34     10     30   1
    35     11     31   1
    36     12     32   1
    37     16     33   1
    38     17     34   1
    39     21     35   1
    40     22     36   1
    41     23     37   1
    42     24     38   1
    43     39     40   2
    44     40     41   1
    45     41     42   2
    46     42     43   1
    47     43     44   2
    48     44     39   1
    49     45     46   2
    50     45     47   1
    51     42     45   1
    52     41     48   1
    53     43     49   1
    54     44     50   1
    55     18     39   1
