# Produced with molli package
@<TRIPOS>MOLECULE
H_6_Q
47 52 0 0 0
SMALL
USER_CHARGES

@<TRIPOS>ATOM
     1 N      -3.901849     0.485689     0.507673 N          1 UNL1 0.000
     2 C      -4.594506    -0.787831     0.546739 C          1 UNL1 0.000
     3 C      -4.587504     1.763532     0.505198 C          1 UNL1 0.000
     4 C      -5.988031     1.875393     0.514950 C          1 UNL1 0.000
     5 C      -6.603840     3.143517     0.492961 C          1 UNL1 0.000
     6 C      -5.851173     4.313499     0.465622 C          1 UNL1 0.000
     7 C      -4.469531     4.228791     0.462877 C          1 UNL1 0.000
     8 C      -3.850821     2.975176     0.483074 C          1 UNL1 0.000
     9 C      -3.865124    -2.004047     0.553636 C          1 UNL1 0.000
    10 C      -4.491351    -3.253728     0.587813 C          1 UNL1 0.000
    11 C      -5.873265    -3.330014     0.613925 C          1 UNL1 0.000
    12 C      -6.618985    -2.155360     0.604376 C          1 UNL1 0.000
    13 C      -5.995686    -0.891102     0.570639 C          1 UNL1 0.000
    14 S      -7.097313     0.495466     0.549588 S          1 UNL1 0.000
    15 C      -2.454047     0.480265     0.446636 C          1 UNL1 0.000
    16 C      -1.742932     0.452471     1.656548 C          1 UNL1 0.000
    17 C      -0.353665     0.447968     1.650177 C          1 UNL1 0.000
    18 C       0.362470     0.477158     0.440310 C          1 UNL1 0.000
    19 C      -0.340981     0.493920    -0.800747 C          1 UNL1 0.000
    20 C      -1.762249     0.498951    -0.798354 C          1 UNL1 0.000
    21 C       0.321491     0.501728    -2.053236 C          1 UNL1 0.000
    22 C      -0.376764     0.524720    -3.261117 C          1 UNL1 0.000
    23 C      -1.761321     0.535850    -3.253599 C          1 UNL1 0.000
    24 C      -2.443090     0.520330    -2.038271 C          1 UNL1 0.000
    25 H      -7.689594     3.225170     0.495361 H          1 UNL1 0.000
    26 H      -6.344002     5.281560     0.446554 H          1 UNL1 0.000
    27 H      -3.865012     5.131895     0.441995 H          1 UNL1 0.000
    28 H      -2.763936     2.970862     0.476112 H          1 UNL1 0.000
    29 H      -2.778050    -2.007867     0.527866 H          1 UNL1 0.000
    30 H      -3.891519    -4.160295     0.591105 H          1 UNL1 0.000
    31 H      -6.371364    -4.295216     0.638523 H          1 UNL1 0.000
    32 H      -7.705057    -2.230399     0.621050 H          1 UNL1 0.000
    33 H      -2.281952     0.430178     2.600847 H          1 UNL1 0.000
    34 H       0.180002     0.416407     2.598947 H          1 UNL1 0.000
    35 H       1.408759     0.475826    -2.105748 H          1 UNL1 0.000
    36 H       0.165411     0.527243    -4.202958 H          1 UNL1 0.000
    37 H      -2.316217     0.550119    -4.187747 H          1 UNL1 0.000
    38 H      -3.531578     0.522043    -2.066064 H          1 UNL1 0.000
    39 C       1.827001     0.501862     0.506163 C          1 UNL1 0.000
    40 N       2.451797    -0.701969     0.559230 N          1 UNL1 0.000
    41 C       3.803658    -0.661533     0.600525 C          1 UNL1 0.000
    42 C       4.514198     0.526937     0.595585 C          1 UNL1 0.000
    43 N       3.906625     1.733200     0.550543 N          1 UNL1 0.000
    44 C       2.551740     1.692364     0.506760 C          1 UNL1 0.000
    45 H       4.305873    -1.621589     0.635767 H          1 UNL1 0.000
    46 H       5.597705     0.539861     0.627127 H          1 UNL1 0.000
    47 H       2.055991     2.656632     0.465838 H          1 UNL1 0.000
@<TRIPOS>BOND
     1      1      2   1
     2      1      3   1
     3      3      4   2
     4      4      5   1
     5      5      6   2
     6      6      7   1
     7      7      8   2
     8      8      3   1
     9      2      9   2
    10      9     10   1
    11     10     11   2
    12     11     12   1
    13     12     13   2
    14     13      2   1
    15      4     14   1
    16     14     13   1
    17     15     16   2
    18     16     17   1
    19     17     18   2
    20     18     19   1
    21     19     20   2
    22     20     15   1
    23     19     21   1
    24     21     22   2
    25     22     23   1
    26     23     24   2
    27     24     20   1
    28      1     15   1
    29      5     25   1
    30      6     26   1
    31      7     27   1
    32      8     28   1
    33      9     29   1
    34     10     30   1
    35     11     31   1
    36     12     32   1
    37     16     33   1
    38     17     34   1
    39     21     35   1
    40     22     36   1
    41     23     37   1
    42     24     38   1
    43     39     40   2
    44     40     41   1
    45     41     42   2
    46     42     43   1
    47     43     44   2
    48     44     39   1
    49     41     45   1
    50     42     46   1
    51     44     47   1
    52     18     39   1
