# Produced with molli package
@<TRIPOS>MOLECULE
H_6_P
53 58 0 0 0
SMALL
USER_CHARGES

@<TRIPOS>ATOM
     1 N      -3.865330     0.594416     0.457738 N          1 UNL1 0.000
     2 C      -4.568069    -0.674281     0.475009 C          1 UNL1 0.000
     3 C      -4.541413     1.876869     0.480652 C          1 UNL1 0.000
     4 C      -5.941381     1.998834     0.478416 C          1 UNL1 0.000
     5 C      -6.548419     3.271163     0.500062 C          1 UNL1 0.000
     6 C      -5.787388     4.435665     0.524351 C          1 UNL1 0.000
     7 C      -4.406282     4.340931     0.523575 C          1 UNL1 0.000
     8 C      -3.796153     3.083003     0.500200 C          1 UNL1 0.000
     9 C      -3.847764    -1.895729     0.493904 C          1 UNL1 0.000
    10 C      -4.483331    -3.141083     0.506300 C          1 UNL1 0.000
    11 C      -5.865980    -3.207541     0.498396 C          1 UNL1 0.000
    12 C      -6.602928    -2.027492     0.478643 C          1 UNL1 0.000
    13 C      -5.970078    -0.767574     0.468085 C          1 UNL1 0.000
    14 S      -7.060793     0.627154     0.434835 S          1 UNL1 0.000
    15 C      -2.416833     0.578346     0.406758 C          1 UNL1 0.000
    16 C      -1.712306     0.585839     1.621608 C          1 UNL1 0.000
    17 C      -0.322765     0.557594     1.625580 C          1 UNL1 0.000
    18 C       0.399251     0.519427     0.420990 C          1 UNL1 0.000
    19 C      -0.297576     0.513804    -0.825201 C          1 UNL1 0.000
    20 C      -1.718056     0.545814    -0.833610 C          1 UNL1 0.000
    21 C       0.373006     0.472136    -2.072479 C          1 UNL1 0.000
    22 C      -0.315315     0.466331    -3.285925 C          1 UNL1 0.000
    23 C      -1.699404     0.501255    -3.289217 C          1 UNL1 0.000
    24 C      -2.389838     0.540175    -2.078991 C          1 UNL1 0.000
    25 H      -7.633558     3.360483     0.495893 H          1 UNL1 0.000
    26 H      -6.273235     5.407283     0.540570 H          1 UNL1 0.000
    27 H      -3.795170     5.239695     0.538812 H          1 UNL1 0.000
    28 H      -2.709100     3.070950     0.495092 H          1 UNL1 0.000
    29 H      -2.760674    -1.906229     0.496595 H          1 UNL1 0.000
    30 H      -3.890571    -4.052094     0.519639 H          1 UNL1 0.000
    31 H      -6.371521    -4.169165     0.505574 H          1 UNL1 0.000
    32 H      -7.689621    -2.094702     0.469581 H          1 UNL1 0.000
    33 H      -2.257369     0.610408     2.562260 H          1 UNL1 0.000
    34 H       0.204536     0.561895     2.577869 H          1 UNL1 0.000
    35 H       1.460636     0.441539    -2.113933 H          1 UNL1 0.000
    36 H       0.234971     0.433791    -4.222383 H          1 UNL1 0.000
    37 H      -2.246768     0.496824    -4.227772 H          1 UNL1 0.000
    38 H      -3.477700     0.565380    -2.114838 H          1 UNL1 0.000
    39 C       1.869846     0.475366     0.491718 C          1 UNL1 0.000
    40 C       2.628606     1.654960     0.410693 C          1 UNL1 0.000
    41 C       4.024651     1.605238     0.413273 C          1 UNL1 0.000
    42 C       4.668438     0.375023     0.516838 C          1 UNL1 0.000
    43 C       3.936535    -0.805885     0.596982 C          1 UNL1 0.000
    44 C       2.541211    -0.754279     0.595060 C          1 UNL1 0.000
    45 O       6.032387     0.305399     0.443830 O          1 UNL1 0.000
    46 C       6.607549     0.534030     1.729432 C          1 UNL1 0.000
    47 H       2.129825     2.617411     0.315867 H          1 UNL1 0.000
    48 H       4.602406     2.519214     0.313755 H          1 UNL1 0.000
    49 H       4.447719    -1.762688     0.645685 H          1 UNL1 0.000
    50 H       1.974320    -1.681608     0.646421 H          1 UNL1 0.000
    51 H       7.691981     0.423264     1.634078 H          1 UNL1 0.000
    52 H       6.254392    -0.204057     2.458117 H          1 UNL1 0.000
    53 H       6.400429     1.550129     2.081854 H          1 UNL1 0.000
@<TRIPOS>BOND
     1      1      2   1
     2      1      3   1
     3      3      4   2
     4      4      5   1
     5      5      6   2
     6      6      7   1
     7      7      8   2
     8      8      3   1
     9      2      9   2
    10      9     10   1
    11     10     11   2
    12     11     12   1
    13     12     13   2
    14     13      2   1
    15      4     14   1
    16     14     13   1
    17     15     16   2
    18     16     17   1
    19     17     18   2
    20     18     19   1
    21     19     20   2
    22     20     15   1
    23     19     21   1
    24     21     22   2
    25     22     23   1
    26     23     24   2
    27     24     20   1
    28      1     15   1
    29      5     25   1
    30      6     26   1
    31      7     27   1
    32      8     28   1
    33      9     29   1
    34     10     30   1
    35     11     31   1
    36     12     32   1
    37     16     33   1
    38     17     34   1
    39     21     35   1
    40     22     36   1
    41     23     37   1
    42     24     38   1
    43     39     40   2
    44     40     41   1
    45     41     42   2
    46     42     43   1
    47     43     44   2
    48     44     39   1
    49     45     46   1
    50     42     45   1
    51     40     47   1
    52     41     48   1
    53     43     49   1
    54     44     50   1
    55     46     51   1
    56     46     52   1
    57     46     53   1
    58     18     39   1
