# Produced with molli package
@<TRIPOS>MOLECULE
H_6_T
52 57 0 0 0
SMALL
USER_CHARGES

@<TRIPOS>ATOM
     1 N      -3.843627     0.456892     0.560310 N          1 UNL1 0.000
     2 C      -4.546564    -0.811219     0.552606 C          1 UNL1 0.000
     3 C      -4.518812     1.739766     0.598825 C          1 UNL1 0.000
     4 C      -5.918357     1.862911     0.607133 C          1 UNL1 0.000
     5 C      -6.523561     3.136073     0.634599 C          1 UNL1 0.000
     6 C      -5.761137     4.299926     0.654963 C          1 UNL1 0.000
     7 C      -4.380279     4.203881     0.648293 C          1 UNL1 0.000
     8 C      -3.772098     2.945329     0.620598 C          1 UNL1 0.000
     9 C      -3.826618    -2.032757     0.534755 C          1 UNL1 0.000
    10 C      -4.462910    -3.277603     0.511120 C          1 UNL1 0.000
    11 C      -5.845692    -3.343144     0.504166 C          1 UNL1 0.000
    12 C      -6.582171    -2.162809     0.525130 C          1 UNL1 0.000
    13 C      -5.948709    -0.903504     0.551495 C          1 UNL1 0.000
    14 S      -7.038999     0.492050     0.572101 S          1 UNL1 0.000
    15 C      -2.396411     0.444206     0.483257 C          1 UNL1 0.000
    16 C      -1.670623     0.426287     1.684783 C          1 UNL1 0.000
    17 C      -0.281335     0.428210     1.661939 C          1 UNL1 0.000
    18 C       0.419625     0.447332     0.443874 C          1 UNL1 0.000
    19 C      -0.299393     0.458336    -0.788964 C          1 UNL1 0.000
    20 C      -1.720101     0.458025    -0.770193 C          1 UNL1 0.000
    21 C       0.348069     0.468479    -2.048867 C          1 UNL1 0.000
    22 C      -0.363473     0.482388    -3.249054 C          1 UNL1 0.000
    23 C      -1.747874     0.484953    -3.225808 C          1 UNL1 0.000
    24 C      -2.415390     0.472631    -2.002493 C          1 UNL1 0.000
    25 H      -7.608552     3.226722     0.637398 H          1 UNL1 0.000
    26 H      -6.245648     5.272132     0.673675 H          1 UNL1 0.000
    27 H      -3.767696     5.101671     0.661563 H          1 UNL1 0.000
    28 H      -2.685028     2.932513     0.611866 H          1 UNL1 0.000
    29 H      -2.739471    -2.043176     0.534160 H          1 UNL1 0.000
    30 H      -3.870684    -4.188913     0.494766 H          1 UNL1 0.000
    31 H      -6.351754    -4.304256     0.481554 H          1 UNL1 0.000
    32 H      -7.668921    -2.229198     0.518252 H          1 UNL1 0.000
    33 H      -2.197795     0.415792     2.635721 H          1 UNL1 0.000
    34 H       0.264367     0.419974     2.603998 H          1 UNL1 0.000
    35 H       1.435122     0.464142    -2.109900 H          1 UNL1 0.000
    36 H       0.168724     0.490680    -4.196333 H          1 UNL1 0.000
    37 H      -2.313520     0.495425    -4.153397 H          1 UNL1 0.000
    38 H      -3.504014     0.473660    -2.017488 H          1 UNL1 0.000
    39 C       1.891381     0.459762     0.493498 C          1 UNL1 0.000
    40 C       2.600601     1.667117     0.413351 C          1 UNL1 0.000
    41 C       3.998172     1.678652     0.432327 C          1 UNL1 0.000
    42 C       4.714487     0.482083     0.537894 C          1 UNL1 0.000
    43 C       4.012066    -0.724996     0.628854 C          1 UNL1 0.000
    44 C       2.614690    -0.735534     0.608564 C          1 UNL1 0.000
    45 C       6.214432     0.477511     0.541200 C          1 UNL1 0.000
    46 H       2.062356     2.608646     0.323796 H          1 UNL1 0.000
    47 H       4.520252     2.629915     0.359000 H          1 UNL1 0.000
    48 H       4.549670    -1.667101     0.710373 H          1 UNL1 0.000
    49 H       2.088866    -1.686010     0.671273 H          1 UNL1 0.000
    50 H       6.590397    -0.069628    -0.329375 H          1 UNL1 0.000
    51 H       6.589328     0.003913     1.454134 H          1 UNL1 0.000
    52 H       6.619570     1.493957     0.500515 H          1 UNL1 0.000
@<TRIPOS>BOND
     1      1      2   1
     2      1      3   1
     3      3      4   2
     4      4      5   1
     5      5      6   2
     6      6      7   1
     7      7      8   2
     8      8      3   1
     9      2      9   2
    10      9     10   1
    11     10     11   2
    12     11     12   1
    13     12     13   2
    14     13      2   1
    15      4     14   1
    16     14     13   1
    17     15     16   2
    18     16     17   1
    19     17     18   2
    20     18     19   1
    21     19     20   2
    22     20     15   1
    23     19     21   1
    24     21     22   2
    25     22     23   1
    26     23     24   2
    27     24     20   1
    28      1     15   1
    29      5     25   1
    30      6     26   1
    31      7     27   1
    32      8     28   1
    33      9     29   1
    34     10     30   1
    35     11     31   1
    36     12     32   1
    37     16     33   1
    38     17     34   1
    39     21     35   1
    40     22     36   1
    41     23     37   1
    42     24     38   1
    43     39     40   2
    44     40     41   1
    45     41     42   2
    46     42     43   1
    47     43     44   2
    48     44     39   1
    49     42     45   1
    50     40     46   1
    51     41     47   1
    52     43     48   1
    53     44     49   1
    54     45     50   1
    55     45     51   1
    56     45     52   1
    57     18     39   1
