# Produced with molli package
@<TRIPOS>MOLECULE
H_6_M
50 55 0 0 0
SMALL
USER_CHARGES

@<TRIPOS>ATOM
     1 N      -3.866228     0.481359     0.447676 N          1 UNL1 0.000
     2 C      -4.541980    -0.801054     0.496582 C          1 UNL1 0.000
     3 C      -4.568185     1.750219     0.472297 C          1 UNL1 0.000
     4 C      -5.968040     1.844088     0.551139 C          1 UNL1 0.000
     5 C      -6.600371     3.104102     0.572138 C          1 UNL1 0.000
     6 C      -5.865231     4.283864     0.513507 C          1 UNL1 0.000
     7 C      -4.485032     4.216928     0.430848 C          1 UNL1 0.000
     8 C      -3.849885     2.971366     0.409933 C          1 UNL1 0.000
     9 C      -3.798411    -2.008139     0.463284 C          1 UNL1 0.000
    10 C      -4.408249    -3.265890     0.500751 C          1 UNL1 0.000
    11 C      -5.787464    -3.359639     0.572949 C          1 UNL1 0.000
    12 C      -6.546750    -2.194325     0.608122 C          1 UNL1 0.000
    13 C      -5.939968    -0.922168     0.571340 C          1 UNL1 0.000
    14 S      -7.057501     0.450243     0.627195 S          1 UNL1 0.000
    15 C      -2.417902     0.495915     0.393569 C          1 UNL1 0.000
    16 C      -1.714741     0.534603     1.608091 C          1 UNL1 0.000
    17 C      -0.325383     0.549679     1.612667 C          1 UNL1 0.000
    18 C       0.398907     0.525144     0.408827 C          1 UNL1 0.000
    19 C      -0.295857     0.484355    -0.837183 C          1 UNL1 0.000
    20 C      -1.717302     0.471029    -0.845979 C          1 UNL1 0.000
    21 C       0.376515     0.455356    -2.083570 C          1 UNL1 0.000
    22 C      -0.311254     0.415909    -3.296798 C          1 UNL1 0.000
    23 C      -1.695993     0.405019    -3.300406 C          1 UNL1 0.000
    24 C      -2.388058     0.432624    -2.090864 C          1 UNL1 0.000
    25 H      -7.685373     3.171523     0.634139 H          1 UNL1 0.000
    26 H      -6.370603     5.245500     0.530146 H          1 UNL1 0.000
    27 H      -3.894336     5.127970     0.380243 H          1 UNL1 0.000
    28 H      -2.765240     2.981389     0.337896 H          1 UNL1 0.000
    29 H      -2.713142    -1.997277     0.401630 H          1 UNL1 0.000
    30 H      -3.798704    -4.165356     0.470793 H          1 UNL1 0.000
    31 H      -6.273340    -4.331002     0.601152 H          1 UNL1 0.000
    32 H      -7.630533    -2.282868     0.664612 H          1 UNL1 0.000
    33 H      -2.260775     0.553252     2.548439 H          1 UNL1 0.000
    34 H       0.199290     0.580886     2.566042 H          1 UNL1 0.000
    35 H       1.464152     0.462641    -2.125193 H          1 UNL1 0.000
    36 H       0.238920     0.393978    -4.233727 H          1 UNL1 0.000
    37 H      -2.242711     0.374708    -4.239005 H          1 UNL1 0.000
    38 H      -3.476349     0.423049    -2.126683 H          1 UNL1 0.000
    39 C       1.869321     0.542825     0.486567 C          1 UNL1 0.000
    40 C       2.572401     1.757423     0.469268 C          1 UNL1 0.000
    41 C       3.969755     1.774453     0.516543 C          1 UNL1 0.000
    42 C       4.683496     0.574372     0.585505 C          1 UNL1 0.000
    43 C       3.993338    -0.641055     0.613963 C          1 UNL1 0.000
    44 C       2.595971    -0.655205     0.566489 C          1 UNL1 0.000
    45 C       6.116637     0.589719     0.620339 C          1 UNL1 0.000
    46 N       7.276960     0.601928     0.644904 N          1 UNL1 0.000
    47 H       2.029178     2.699159     0.407725 H          1 UNL1 0.000
    48 H       4.492690     2.728858     0.493747 H          1 UNL1 0.000
    49 H       4.534803    -1.583811     0.667678 H          1 UNL1 0.000
    50 H       2.071318    -1.609269     0.581159 H          1 UNL1 0.000
@<TRIPOS>BOND
     1      1      2   1
     2      1      3   1
     3      3      4   2
     4      4      5   1
     5      5      6   2
     6      6      7   1
     7      7      8   2
     8      8      3   1
     9      2      9   2
    10      9     10   1
    11     10     11   2
    12     11     12   1
    13     12     13   2
    14     13      2   1
    15      4     14   1
    16     14     13   1
    17     15     16   2
    18     16     17   1
    19     17     18   2
    20     18     19   1
    21     19     20   2
    22     20     15   1
    23     19     21   1
    24     21     22   2
    25     22     23   1
    26     23     24   2
    27     24     20   1
    28      1     15   1
    29      5     25   1
    30      6     26   1
    31      7     27   1
    32      8     28   1
    33      9     29   1
    34     10     30   1
    35     11     31   1
    36     12     32   1
    37     16     33   1
    38     17     34   1
    39     21     35   1
    40     22     36   1
    41     23     37   1
    42     24     38   1
    43     39     40   2
    44     40     41   1
    45     41     42   2
    46     42     43   1
    47     43     44   2
    48     44     39   1
    49     45     46   3
    50     42     45   1
    51     40     47   1
    52     41     48   1
    53     43     49   1
    54     44     50   1
    55     18     39   1
