# Produced with molli package
@<TRIPOS>MOLECULE
H_6_O
48 53 0 0 0
SMALL
USER_CHARGES

@<TRIPOS>ATOM
     1 N      -3.886209     0.413072     0.518865 N          1 UNL1 0.000
     2 C      -4.553549    -0.874558     0.542293 C          1 UNL1 0.000
     3 C      -4.595217     1.675862     0.593542 C          1 UNL1 0.000
     4 C      -5.996585     1.759136     0.656559 C          1 UNL1 0.000
     5 C      -6.636375     3.013584     0.726707 C          1 UNL1 0.000
     6 C      -5.907075     4.198307     0.736148 C          1 UNL1 0.000
     7 C      -4.525341     4.141982     0.672677 C          1 UNL1 0.000
     8 C      -3.882945     2.901942     0.601252 C          1 UNL1 0.000
     9 C      -3.801795    -2.076138     0.499257 C          1 UNL1 0.000
    10 C      -4.403451    -3.338249     0.523531 C          1 UNL1 0.000
    11 C      -5.782338    -3.442224     0.588594 C          1 UNL1 0.000
    12 C      -6.549871    -2.282488     0.626470 C          1 UNL1 0.000
    13 C      -5.951379    -1.006041     0.603501 C          1 UNL1 0.000
    14 S      -7.079554     0.358225     0.647373 S          1 UNL1 0.000
    15 C      -2.438461     0.437312     0.447192 C          1 UNL1 0.000
    16 C      -1.719138     0.414809     1.652594 C          1 UNL1 0.000
    17 C      -0.329965     0.436590     1.637948 C          1 UNL1 0.000
    18 C       0.378873     0.481391     0.424553 C          1 UNL1 0.000
    19 C      -0.332412     0.488236    -0.811632 C          1 UNL1 0.000
    20 C      -1.754463     0.474877    -0.801556 C          1 UNL1 0.000
    21 C       0.323611     0.504908    -2.066690 C          1 UNL1 0.000
    22 C      -0.380243     0.522996    -3.271132 C          1 UNL1 0.000
    23 C      -1.765233     0.523202    -3.256603 C          1 UNL1 0.000
    24 C      -2.441412     0.496892    -2.037891 C          1 UNL1 0.000
    25 H      -7.722594     3.072412     0.773969 H          1 UNL1 0.000
    26 H      -6.418132     5.155471     0.790683 H          1 UNL1 0.000
    27 H      -3.938982     5.057137     0.676418 H          1 UNL1 0.000
    28 H      -2.797345     2.919894     0.548768 H          1 UNL1 0.000
    29 H      -2.715881    -2.058032     0.442938 H          1 UNL1 0.000
    30 H      -3.786674    -4.232736     0.489778 H          1 UNL1 0.000
    31 H      -6.261220    -4.417199     0.607334 H          1 UNL1 0.000
    32 H      -7.633364    -2.378768     0.673575 H          1 UNL1 0.000
    33 H      -2.251093     0.377385     2.600132 H          1 UNL1 0.000
    34 H       0.211830     0.412793     2.581940 H          1 UNL1 0.000
    35 H       1.411223     0.488500    -2.120211 H          1 UNL1 0.000
    36 H       0.157911     0.530653    -4.215055 H          1 UNL1 0.000
    37 H      -2.324168     0.535928    -4.188230 H          1 UNL1 0.000
    38 H      -3.530037     0.489779    -2.059467 H          1 UNL1 0.000
    39 C       1.846070     0.538878     0.484893 C          1 UNL1 0.000
    40 N       2.486052    -0.655516     0.495047 N          1 UNL1 0.000
    41 C       3.836110    -0.633374     0.540654 C          1 UNL1 0.000
    42 C       4.588329     0.528681     0.581778 C          1 UNL1 0.000
    43 C       3.917519     1.745383     0.577660 C          1 UNL1 0.000
    44 C       2.526211     1.754866     0.529470 C          1 UNL1 0.000
    45 H       4.313540    -1.609164     0.542108 H          1 UNL1 0.000
    46 H       5.671167     0.485709     0.616550 H          1 UNL1 0.000
    47 H       4.471372     2.679196     0.610012 H          1 UNL1 0.000
    48 H       1.981757     2.693652     0.521331 H          1 UNL1 0.000
@<TRIPOS>BOND
     1      1      2   1
     2      1      3   1
     3      3      4   2
     4      4      5   1
     5      5      6   2
     6      6      7   1
     7      7      8   2
     8      8      3   1
     9      2      9   2
    10      9     10   1
    11     10     11   2
    12     11     12   1
    13     12     13   2
    14     13      2   1
    15      4     14   1
    16     14     13   1
    17     15     16   2
    18     16     17   1
    19     17     18   2
    20     18     19   1
    21     19     20   2
    22     20     15   1
    23     19     21   1
    24     21     22   2
    25     22     23   1
    26     23     24   2
    27     24     20   1
    28      1     15   1
    29      5     25   1
    30      6     26   1
    31      7     27   1
    32      8     28   1
    33      9     29   1
    34     10     30   1
    35     11     31   1
    36     12     32   1
    37     16     33   1
    38     17     34   1
    39     21     35   1
    40     22     36   1
    41     23     37   1
    42     24     38   1
    43     39     40   2
    44     40     41   1
    45     41     42   2
    46     42     43   1
    47     43     44   2
    48     44     39   1
    49     41     45   1
    50     42     46   1
    51     43     47   1
    52     44     48   1
    53     18     39   1
