# Produced with molli package
@<TRIPOS>MOLECULE
H_6_K
51 56 0 0 0
SMALL
USER_CHARGES

@<TRIPOS>ATOM
     1 N      -3.891338     0.539782     0.433081 N          1 UNL1 0.000
     2 C      -4.561896    -0.746036     0.442820 C          1 UNL1 0.000
     3 C      -4.597850     1.805029     0.487631 C          1 UNL1 0.000
     4 C      -5.999021     1.891996     0.545679 C          1 UNL1 0.000
     5 C      -6.635921     3.149110     0.588768 C          1 UNL1 0.000
     6 C      -5.903936     4.332377     0.575772 C          1 UNL1 0.000
     7 C      -4.522163     4.272128     0.519221 C          1 UNL1 0.000
     8 C      -3.882574     3.029616     0.475602 C          1 UNL1 0.000
     9 C      -3.812387    -1.948857     0.390238 C          1 UNL1 0.000
    10 C      -4.416942    -3.209578     0.387074 C          1 UNL1 0.000
    11 C      -5.796628    -3.310542     0.436631 C          1 UNL1 0.000
    12 C      -6.561590    -2.149517     0.490607 C          1 UNL1 0.000
    13 C      -5.960155    -0.874331     0.494949 C          1 UNL1 0.000
    14 S      -7.083998     0.492520     0.564241 S          1 UNL1 0.000
    15 C      -2.444633     0.561932     0.354009 C          1 UNL1 0.000
    16 C      -1.719167     0.560708     1.555616 C          1 UNL1 0.000
    17 C      -0.330319     0.584075     1.533825 C          1 UNL1 0.000
    18 C       0.371054     0.608122     0.316045 C          1 UNL1 0.000
    19 C      -0.347150     0.605118    -0.917532 C          1 UNL1 0.000
    20 C      -1.768181     0.584268    -0.898903 C          1 UNL1 0.000
    21 C       0.299695     0.618709    -2.177843 C          1 UNL1 0.000
    22 C      -0.412521     0.618493    -3.377784 C          1 UNL1 0.000
    23 C      -1.796877     0.602776    -3.354094 C          1 UNL1 0.000
    24 C      -2.463892     0.585264    -2.130693 C          1 UNL1 0.000
    25 H      -7.722123     3.211639     0.631443 H          1 UNL1 0.000
    26 H      -6.412885     5.291731     0.607897 H          1 UNL1 0.000
    27 H      -3.933705     5.185934     0.505947 H          1 UNL1 0.000
    28 H      -2.796739     3.045050     0.426524 H          1 UNL1 0.000
    29 H      -2.726408    -1.932011     0.344819 H          1 UNL1 0.000
    30 H      -3.803032    -4.105499     0.342913 H          1 UNL1 0.000
    31 H      -6.278501    -4.284304     0.432252 H          1 UNL1 0.000
    32 H      -7.645678    -2.243958     0.528143 H          1 UNL1 0.000
    33 H      -2.247272     0.543339     2.506165 H          1 UNL1 0.000
    34 H       0.211959     0.586748     2.477856 H          1 UNL1 0.000
    35 H       1.386049     0.627921    -2.241893 H          1 UNL1 0.000
    36 H       0.118174     0.630018    -4.326072 H          1 UNL1 0.000
    37 H      -2.362870     0.602384    -4.281712 H          1 UNL1 0.000
    38 H      -3.552647     0.571128    -2.145339 H          1 UNL1 0.000
    39 C       1.842699     0.637772     0.368965 C          1 UNL1 0.000
    40 C       2.575752    -0.551383     0.520679 C          1 UNL1 0.000
    41 C       3.972871    -0.531352     0.557195 C          1 UNL1 0.000
    42 C       4.645542     0.690567     0.440058 C          1 UNL1 0.000
    43 C       3.934297     1.887343     0.294842 C          1 UNL1 0.000
    44 C       2.537367     1.855091     0.264008 C          1 UNL1 0.000
    45 N       6.111002     0.716727     0.464548 N          1 UNL1 0.000
    46 O       6.674569     1.741930     0.056138 O          1 UNL1 0.000
    47 O       6.696977    -0.288898     0.890344 O          1 UNL1 0.000
    48 H       2.054241    -1.504161     0.602456 H          1 UNL1 0.000
    49 H       4.515512    -1.467831     0.668900 H          1 UNL1 0.000
    50 H       4.446476     2.843137     0.205380 H          1 UNL1 0.000
    51 H       1.985046     2.786905     0.148653 H          1 UNL1 0.000
@<TRIPOS>BOND
     1      1      2   1
     2      1      3   1
     3      3      4   2
     4      4      5   1
     5      5      6   2
     6      6      7   1
     7      7      8   2
     8      8      3   1
     9      2      9   2
    10      9     10   1
    11     10     11   2
    12     11     12   1
    13     12     13   2
    14     13      2   1
    15      4     14   1
    16     14     13   1
    17     15     16   2
    18     16     17   1
    19     17     18   2
    20     18     19   1
    21     19     20   2
    22     20     15   1
    23     19     21   1
    24     21     22   2
    25     22     23   1
    26     23     24   2
    27     24     20   1
    28      1     15   1
    29      5     25   1
    30      6     26   1
    31      7     27   1
    32      8     28   1
    33      9     29   1
    34     10     30   1
    35     11     31   1
    36     12     32   1
    37     16     33   1
    38     17     34   1
    39     21     35   1
    40     22     36   1
    41     23     37   1
    42     24     38   1
    43     39     40   2
    44     40     41   1
    45     41     42   2
    46     42     43   1
    47     43     44   2
    48     44     39   1
    49     45     46   2
    50     45     47   1
    51     42     45   1
    52     40     48   1
    53     41     49   1
    54     43     50   1
    55     44     51   1
    56     18     39   1
