# Produced with molli package
@<TRIPOS>MOLECULE
H_7_M
48 52 0 0 0
SMALL
USER_CHARGES

@<TRIPOS>ATOM
     1 N      -6.183085     0.566158     1.809639 N          1 UNL1 0.000
     2 C      -6.874134    -0.708595     1.807580 C          1 UNL1 0.000
     3 C      -6.873236     1.841470     1.801255 C          1 UNL1 0.000
     4 C      -8.273555     1.949782     1.750703 C          1 UNL1 0.000
     5 C      -8.893651     3.216183     1.738697 C          1 UNL1 0.000
     6 C      -8.145889     4.388677     1.780551 C          1 UNL1 0.000
     7 C      -6.765079     4.307954     1.837215 C          1 UNL1 0.000
     8 C      -6.142045     3.055897     1.848673 C          1 UNL1 0.000
     9 C      -6.143662    -1.923839     1.844123 C          1 UNL1 0.000
    10 C      -6.767750    -3.175203     1.846070 C          1 UNL1 0.000
    11 C      -8.149086    -3.254671     1.806824 C          1 UNL1 0.000
    12 C      -8.896031    -2.081641     1.764876 C          1 UNL1 0.000
    13 C      -8.274773    -0.815780     1.765156 C          1 UNL1 0.000
    14 S      -9.378403     0.567184     1.692555 S          1 UNL1 0.000
    15 C      -4.745803     0.564863     1.761257 C          1 UNL1 0.000
    16 C      -3.989349     0.482049     2.937540 C          1 UNL1 0.000
    17 C      -2.590727     0.475351     2.877857 C          1 UNL1 0.000
    18 C      -1.920115     0.550899     1.646968 C          1 UNL1 0.000
    19 C      -2.686800     0.648608     0.476399 C          1 UNL1 0.000
    20 C      -4.084080     0.648414     0.530008 C          1 UNL1 0.000
    21 C      -0.444794     0.571803     1.642949 C          1 UNL1 0.000
    22 C       0.326759     0.349207     0.567019 C          1 UNL1 0.000
    23 H      -9.978884     3.294218     1.695919 H          1 UNL1 0.000
    24 H      -8.641994     5.355227     1.770562 H          1 UNL1 0.000
    25 H      -6.164549     5.213236     1.873439 H          1 UNL1 0.000
    26 H      -5.056036     3.054463     1.899125 H          1 UNL1 0.000
    27 H      -5.056975    -1.924561     1.872342 H          1 UNL1 0.000
    28 H      -6.167270    -4.080677     1.877271 H          1 UNL1 0.000
    29 H      -8.646007    -4.220793     1.806115 H          1 UNL1 0.000
    30 H      -9.981545    -2.158885     1.729212 H          1 UNL1 0.000
    31 H      -4.491826     0.421421     3.899850 H          1 UNL1 0.000
    32 H      -2.031746     0.407149     3.808896 H          1 UNL1 0.000
    33 H      -2.216951     0.735450    -0.499042 H          1 UNL1 0.000
    34 H      -4.660550     0.719165    -0.389223 H          1 UNL1 0.000
    35 H       0.026488     0.775568     2.603213 H          1 UNL1 0.000
    36 H      -0.080684     0.112281    -0.410426 H          1 UNL1 0.000
    37 C       1.787954     0.395748     0.627181 C          1 UNL1 0.000
    38 C       2.520967    -0.795198     0.639859 C          1 UNL1 0.000
    39 C       3.918528    -0.761650     0.640308 C          1 UNL1 0.000
    40 C       4.591197     0.464787     0.625748 C          1 UNL1 0.000
    41 C       3.859416     1.657095     0.626447 C          1 UNL1 0.000
    42 C       2.461548     1.622139     0.629791 C          1 UNL1 0.000
    43 C       6.024205     0.498879     0.597160 C          1 UNL1 0.000
    44 N       7.184313     0.525536     0.567570 N          1 UNL1 0.000
    45 H       2.008620    -1.755178     0.641450 H          1 UNL1 0.000
    46 H       4.474546    -1.697373     0.642419 H          1 UNL1 0.000
    47 H       4.369454     2.618654     0.613527 H          1 UNL1 0.000
    48 H       1.903067     2.556011     0.615995 H          1 UNL1 0.000
@<TRIPOS>BOND
     1      1      2   1
     2      1      3   1
     3      3      4   2
     4      4      5   1
     5      5      6   2
     6      6      7   1
     7      7      8   2
     8      8      3   1
     9      2      9   2
    10      9     10   1
    11     10     11   2
    12     11     12   1
    13     12     13   2
    14     13      2   1
    15      4     14   1
    16     14     13   1
    17     15     16   2
    18     16     17   1
    19     17     18   2
    20     18     19   1
    21     19     20   2
    22     20     15   1
    23     18     21   1
    24     21     22   2
    25      1     15   1
    26      5     23   1
    27      6     24   1
    28      7     25   1
    29      8     26   1
    30      9     27   1
    31     10     28   1
    32     11     29   1
    33     12     30   1
    34     16     31   1
    35     17     32   1
    36     19     33   1
    37     20     34   1
    38     21     35   1
    39     22     36   1
    40     37     38   2
    41     38     39   1
    42     39     40   2
    43     40     41   1
    44     41     42   2
    45     42     37   1
    46     43     44   3
    47     40     43   1
    48     38     45   1
    49     39     46   1
    50     41     47   1
    51     42     48   1
    52     22     37   1
