# Produced with molli package
@<TRIPOS>MOLECULE
H_7_T
50 54 0 0 0
SMALL
USER_CHARGES

@<TRIPOS>ATOM
     1 N      -6.081995     0.470614     1.765882 N          1 UNL1 0.000
     2 C      -6.750705    -0.815075     1.778276 C          1 UNL1 0.000
     3 C      -6.791749     1.734837     1.786647 C          1 UNL1 0.000
     4 C      -8.193331     1.820685     1.835839 C          1 UNL1 0.000
     5 C      -8.832845     3.077440     1.847067 C          1 UNL1 0.000
     6 C      -8.103272     4.261820     1.811630 C          1 UNL1 0.000
     7 C      -6.721105     4.203229     1.767403 C          1 UNL1 0.000
     8 C      -6.079127     2.961177     1.756469 C          1 UNL1 0.000
     9 C      -5.999705    -2.017430     1.734695 C          1 UNL1 0.000
    10 C      -6.602631    -3.279144     1.740588 C          1 UNL1 0.000
    11 C      -7.982234    -3.381815     1.791089 C          1 UNL1 0.000
    12 C      -8.748806    -2.221516     1.836002 C          1 UNL1 0.000
    13 C      -8.149062    -0.945422     1.829944 C          1 UNL1 0.000
    14 S      -9.275562     0.419970     1.891550 S          1 UNL1 0.000
    15 C      -4.645337     0.495768     1.710818 C          1 UNL1 0.000
    16 C      -3.890993     0.491753     2.892127 C          1 UNL1 0.000
    17 C      -2.495523     0.543832     2.835346 C          1 UNL1 0.000
    18 C      -1.831858     0.589007     1.601583 C          1 UNL1 0.000
    19 C      -2.590037     0.598563     0.422804 C          1 UNL1 0.000
    20 C      -3.985578     0.546369     0.474841 C          1 UNL1 0.000
    21 C      -0.366861     0.699670     1.588351 C          1 UNL1 0.000
    22 C       0.423533     0.111573     0.676036 C          1 UNL1 0.000
    23 H      -9.919283     3.138535     1.884041 H          1 UNL1 0.000
    24 H      -8.614176     5.220565     1.819810 H          1 UNL1 0.000
    25 H      -6.133746     5.117426     1.740711 H          1 UNL1 0.000
    26 H      -4.992577     2.977936     1.722185 H          1 UNL1 0.000
    27 H      -4.913396    -1.998533     1.693009 H          1 UNL1 0.000
    28 H      -5.987267    -4.174423     1.704945 H          1 UNL1 0.000
    29 H      -8.462749    -4.356195     1.795575 H          1 UNL1 0.000
    30 H      -9.832694    -2.316923     1.875782 H          1 UNL1 0.000
    31 H      -4.394028     0.456585     3.855235 H          1 UNL1 0.000
    32 H      -1.931149     0.545695     3.765395 H          1 UNL1 0.000
    33 H      -2.105765     0.665045    -0.548398 H          1 UNL1 0.000
    34 H      -4.563268     0.559165    -0.446038 H          1 UNL1 0.000
    35 H       0.067812     1.281845     2.398160 H          1 UNL1 0.000
    36 H       0.015432    -0.519461    -0.108669 H          1 UNL1 0.000
    37 C       1.885020     0.239847     0.695401 C          1 UNL1 0.000
    38 C       2.674816    -0.906491     0.561558 C          1 UNL1 0.000
    39 C       4.069773    -0.811412     0.557501 C          1 UNL1 0.000
    40 C       4.696270     0.433286     0.681340 C          1 UNL1 0.000
    41 C       3.906081     1.583258     0.788399 C          1 UNL1 0.000
    42 C       2.511658     1.487291     0.795362 C          1 UNL1 0.000
    43 C       6.191417     0.549069     0.658453 C          1 UNL1 0.000
    44 H       2.211166    -1.885959     0.469772 H          1 UNL1 0.000
    45 H       4.661546    -1.718479     0.458353 H          1 UNL1 0.000
    46 H       4.371707     2.563361     0.863974 H          1 UNL1 0.000
    47 H       1.920637     2.397154     0.868277 H          1 UNL1 0.000
    48 H       6.536345     1.190201     1.476371 H          1 UNL1 0.000
    49 H       6.520394     0.974377    -0.294792 H          1 UNL1 0.000
    50 H       6.669690    -0.428005     0.783147 H          1 UNL1 0.000
@<TRIPOS>BOND
     1      1      2   1
     2      1      3   1
     3      3      4   2
     4      4      5   1
     5      5      6   2
     6      6      7   1
     7      7      8   2
     8      8      3   1
     9      2      9   2
    10      9     10   1
    11     10     11   2
    12     11     12   1
    13     12     13   2
    14     13      2   1
    15      4     14   1
    16     14     13   1
    17     15     16   2
    18     16     17   1
    19     17     18   2
    20     18     19   1
    21     19     20   2
    22     20     15   1
    23     18     21   1
    24     21     22   2
    25      1     15   1
    26      5     23   1
    27      6     24   1
    28      7     25   1
    29      8     26   1
    30      9     27   1
    31     10     28   1
    32     11     29   1
    33     12     30   1
    34     16     31   1
    35     17     32   1
    36     19     33   1
    37     20     34   1
    38     21     35   1
    39     22     36   1
    40     37     38   2
    41     38     39   1
    42     39     40   2
    43     40     41   1
    44     41     42   2
    45     42     37   1
    46     40     43   1
    47     38     44   1
    48     39     45   1
    49     41     46   1
    50     42     47   1
    51     43     48   1
    52     43     49   1
    53     43     50   1
    54     22     37   1
