# Produced with molli package
@<TRIPOS>MOLECULE
H_7_P
51 55 0 0 0
SMALL
USER_CHARGES

@<TRIPOS>ATOM
     1 N      -6.136097     0.566831     1.736116 N          1 UNL1 0.000
     2 C      -6.797814    -0.721245     1.791324 C          1 UNL1 0.000
     3 C      -6.852813     1.827043     1.706311 C          1 UNL1 0.000
     4 C      -8.255590     1.905956     1.721454 C          1 UNL1 0.000
     5 C      -8.901794     3.158928     1.688889 C          1 UNL1 0.000
     6 C      -8.177869     4.346369     1.642250 C          1 UNL1 0.000
     7 C      -6.794788     4.294668     1.628086 C          1 UNL1 0.000
     8 C      -6.146184     3.056376     1.659893 C          1 UNL1 0.000
     9 C      -6.039277    -1.919218     1.822974 C          1 UNL1 0.000
    10 C      -6.635102    -3.183159     1.876243 C          1 UNL1 0.000
    11 C      -8.014925    -3.292508     1.899144 C          1 UNL1 0.000
    12 C      -8.788834    -2.136626     1.868522 C          1 UNL1 0.000
    13 C      -8.196258    -0.858323     1.815211 C          1 UNL1 0.000
    14 S      -9.331624     0.500583     1.779081 S          1 UNL1 0.000
    15 C      -4.699302     0.598153     1.689950 C          1 UNL1 0.000
    16 C      -3.951738     0.651794     2.874604 C          1 UNL1 0.000
    17 C      -2.556033     0.713980     2.823960 C          1 UNL1 0.000
    18 C      -1.885146     0.711964     1.593408 C          1 UNL1 0.000
    19 C      -2.637634     0.663090     0.411269 C          1 UNL1 0.000
    20 C      -4.032758     0.599895     0.457119 C          1 UNL1 0.000
    21 C      -0.421048     0.849067     1.579291 C          1 UNL1 0.000
    22 C       0.379213     0.255302     0.678532 C          1 UNL1 0.000
    23 H      -9.989105     3.214596     1.699758 H          1 UNL1 0.000
    24 H      -8.693871     5.302110     1.617548 H          1 UNL1 0.000
    25 H      -6.211867     5.211413     1.592285 H          1 UNL1 0.000
    26 H      -5.059266     3.078644     1.647477 H          1 UNL1 0.000
    27 H      -4.952411    -1.894958     1.806845 H          1 UNL1 0.000
    28 H      -6.014101    -4.074934     1.899471 H          1 UNL1 0.000
    29 H      -8.490011    -4.268685     1.940267 H          1 UNL1 0.000
    30 H      -9.872834    -2.237286     1.886247 H          1 UNL1 0.000
    31 H      -4.460767     0.656113     3.835232 H          1 UNL1 0.000
    32 H      -1.998052     0.764687     3.756429 H          1 UNL1 0.000
    33 H      -2.149867     0.695551    -0.559944 H          1 UNL1 0.000
    34 H      -4.604731     0.568650    -0.466902 H          1 UNL1 0.000
    35 H      -0.004028     1.470933     2.367795 H          1 UNL1 0.000
    36 H      -0.034952    -0.406630    -0.078255 H          1 UNL1 0.000
    37 C       1.839015     0.424933     0.631450 C          1 UNL1 0.000
    38 C       2.633839    -0.641665     0.193605 C          1 UNL1 0.000
    39 C       4.022013    -0.500266     0.065773 C          1 UNL1 0.000
    40 C       4.632036     0.717542     0.362129 C          1 UNL1 0.000
    41 C       3.845984     1.781858     0.805106 C          1 UNL1 0.000
    42 C       2.460291     1.642705     0.929839 C          1 UNL1 0.000
    43 O       5.967806     0.992454     0.264846 O          1 UNL1 0.000
    44 C       6.766603     0.033655    -0.417063 C          1 UNL1 0.000
    45 H       2.179974    -1.599596    -0.051687 H          1 UNL1 0.000
    46 H       4.593768    -1.359888    -0.267031 H          1 UNL1 0.000
    47 H       4.313372     2.735616     1.037542 H          1 UNL1 0.000
    48 H       1.877220     2.505020     1.242546 H          1 UNL1 0.000
    49 H       7.774859     0.447609    -0.514545 H          1 UNL1 0.000
    50 H       6.386264    -0.155692    -1.426741 H          1 UNL1 0.000
    51 H       6.840806    -0.894625     0.158217 H          1 UNL1 0.000
@<TRIPOS>BOND
     1      1      2   1
     2      1      3   1
     3      3      4   2
     4      4      5   1
     5      5      6   2
     6      6      7   1
     7      7      8   2
     8      8      3   1
     9      2      9   2
    10      9     10   1
    11     10     11   2
    12     11     12   1
    13     12     13   2
    14     13      2   1
    15      4     14   1
    16     14     13   1
    17     15     16   2
    18     16     17   1
    19     17     18   2
    20     18     19   1
    21     19     20   2
    22     20     15   1
    23     18     21   1
    24     21     22   2
    25      1     15   1
    26      5     23   1
    27      6     24   1
    28      7     25   1
    29      8     26   1
    30      9     27   1
    31     10     28   1
    32     11     29   1
    33     12     30   1
    34     16     31   1
    35     17     32   1
    36     19     33   1
    37     20     34   1
    38     21     35   1
    39     22     36   1
    40     37     38   2
    41     38     39   1
    42     39     40   2
    43     40     41   1
    44     41     42   2
    45     42     37   1
    46     43     44   1
    47     40     43   1
    48     38     45   1
    49     39     46   1
    50     41     47   1
    51     42     48   1
    52     44     49   1
    53     44     50   1
    54     44     51   1
    55     22     37   1
