# Produced with molli package
@<TRIPOS>MOLECULE
H_7_S
52 56 0 0 0
SMALL
USER_CHARGES

@<TRIPOS>ATOM
     1 N      -6.105822     0.498749     1.843166 N          1 UNL1 0.000
     2 C      -6.826311    -0.759929     1.863791 C          1 UNL1 0.000
     3 C      -6.767847     1.788794     1.846836 C          1 UNL1 0.000
     4 C      -8.166165     1.926853     1.802690 C          1 UNL1 0.000
     5 C      -8.761041     3.205134     1.823160 C          1 UNL1 0.000
     6 C      -7.989503     4.361119     1.883403 C          1 UNL1 0.000
     7 C      -6.609872     4.251695     1.914932 C          1 UNL1 0.000
     8 C      -6.011826     2.987520     1.892759 C          1 UNL1 0.000
     9 C      -6.124712    -1.989057     1.957932 C          1 UNL1 0.000
    10 C      -6.776815    -3.225920     1.977795 C          1 UNL1 0.000
    11 C      -8.158291    -3.276114     1.905565 C          1 UNL1 0.000
    12 C      -8.877627    -2.088337     1.818781 C          1 UNL1 0.000
    13 C      -8.228046    -0.836934     1.801376 C          1 UNL1 0.000
    14 S      -9.298174     0.569302     1.690644 S          1 UNL1 0.000
    15 C      -4.668655     0.462016     1.790466 C          1 UNL1 0.000
    16 C      -3.906314     0.573537     2.961127 C          1 UNL1 0.000
    17 C      -2.509085     0.523185     2.900891 C          1 UNL1 0.000
    18 C      -1.846335     0.362200     1.674708 C          1 UNL1 0.000
    19 C      -2.616838     0.235613     0.509773 C          1 UNL1 0.000
    20 C      -4.013246     0.293403     0.563877 C          1 UNL1 0.000
    21 C      -0.374602     0.279748     1.669595 C          1 UNL1 0.000
    22 C       0.402310     0.564609     0.612447 C          1 UNL1 0.000
    23 H      -9.844694     3.305662     1.788680 H          1 UNL1 0.000
    24 H      -8.465945     5.337396     1.899860 H          1 UNL1 0.000
    25 H      -5.990537     5.144019     1.956395 H          1 UNL1 0.000
    26 H      -4.925306     2.965110     1.914400 H          1 UNL1 0.000
    27 H      -5.039824    -2.011204     2.024867 H          1 UNL1 0.000
    28 H      -6.198164    -4.143080     2.051103 H          1 UNL1 0.000
    29 H      -8.676878    -4.230704     1.919086 H          1 UNL1 0.000
    30 H      -9.963796    -2.142293     1.764761 H          1 UNL1 0.000
    31 H      -4.403684     0.697811     3.919958 H          1 UNL1 0.000
    32 H      -1.944106     0.616028     3.826087 H          1 UNL1 0.000
    33 H      -2.147690     0.078916    -0.457803 H          1 UNL1 0.000
    34 H      -4.594314     0.196378    -0.350057 H          1 UNL1 0.000
    35 H       0.085836    -0.008663     2.612909 H          1 UNL1 0.000
    36 H      -0.005539     0.901384    -0.335916 H          1 UNL1 0.000
    37 C       1.863484     0.490206     0.667953 C          1 UNL1 0.000
    38 C       2.611269     1.667236     0.597571 C          1 UNL1 0.000
    39 C       4.008024     1.615019     0.597612 C          1 UNL1 0.000
    40 C       4.679049     0.385029     0.661304 C          1 UNL1 0.000
    41 C       3.928163    -0.792524     0.754228 C          1 UNL1 0.000
    42 C       2.527025    -0.738297     0.753593 C          1 UNL1 0.000
    43 C       6.174598     0.405939     0.622500 C          1 UNL1 0.000
    44 C       6.954221    -0.880356     0.518694 C          1 UNL1 0.000
    45 O       6.765147     1.481909     0.688577 O          1 UNL1 0.000
    46 H       2.115344     2.633864     0.540620 H          1 UNL1 0.000
    47 H       4.570952     2.545405     0.539729 H          1 UNL1 0.000
    48 H       4.397130    -1.768461     0.827300 H          1 UNL1 0.000
    49 H       1.957671    -1.664445     0.805573 H          1 UNL1 0.000
    50 H       7.811397    -0.713014    -0.141825 H          1 UNL1 0.000
    51 H       6.378495    -1.695137     0.079552 H          1 UNL1 0.000
    52 H       7.311794    -1.166680     1.510850 H          1 UNL1 0.000
@<TRIPOS>BOND
     1      1      2   1
     2      1      3   1
     3      3      4   2
     4      4      5   1
     5      5      6   2
     6      6      7   1
     7      7      8   2
     8      8      3   1
     9      2      9   2
    10      9     10   1
    11     10     11   2
    12     11     12   1
    13     12     13   2
    14     13      2   1
    15      4     14   1
    16     14     13   1
    17     15     16   2
    18     16     17   1
    19     17     18   2
    20     18     19   1
    21     19     20   2
    22     20     15   1
    23     18     21   1
    24     21     22   2
    25      1     15   1
    26      5     23   1
    27      6     24   1
    28      7     25   1
    29      8     26   1
    30      9     27   1
    31     10     28   1
    32     11     29   1
    33     12     30   1
    34     16     31   1
    35     17     32   1
    36     19     33   1
    37     20     34   1
    38     21     35   1
    39     22     36   1
    40     37     38   2
    41     38     39   1
    42     39     40   2
    43     40     41   1
    44     41     42   2
    45     42     37   1
    46     40     43   1
    47     43     44   1
    48     43     45   2
    49     38     46   1
    50     39     47   1
    51     41     48   1
    52     42     49   1
    53     44     50   1
    54     44     51   1
    55     44     52   1
    56     22     37   1
