# Produced with molli package
@<TRIPOS>MOLECULE
H_7_N
44 48 0 0 0
SMALL
USER_CHARGES

@<TRIPOS>ATOM
     1 N      -6.100065     0.548558     1.755104 N          1 UNL1 0.000
     2 C      -6.763833    -0.737714     1.825696 C          1 UNL1 0.000
     3 C      -6.814064     1.810743     1.748652 C          1 UNL1 0.000
     4 C      -8.215600     1.893580     1.804702 C          1 UNL1 0.000
     5 C      -8.858600     3.148657     1.798436 C          1 UNL1 0.000
     6 C      -8.132733     4.334193     1.735769 C          1 UNL1 0.000
     7 C      -6.751038     4.278429     1.676844 C          1 UNL1 0.000
     8 C      -6.105699     3.038129     1.682356 C          1 UNL1 0.000
     9 C      -6.007710    -1.937338     1.842683 C          1 UNL1 0.000
    10 C      -6.605370    -3.199869     1.907074 C          1 UNL1 0.000
    11 C      -7.984713    -3.306057     1.957904 C          1 UNL1 0.000
    12 C      -8.756322    -2.148282     1.946270 C          1 UNL1 0.000
    13 C      -8.161797    -0.871320     1.882159 C          1 UNL1 0.000
    14 S      -9.293903     0.490828     1.880799 S          1 UNL1 0.000
    15 C      -4.664114     0.577104     1.679373 C          1 UNL1 0.000
    16 C      -3.894772     0.681023     2.847174 C          1 UNL1 0.000
    17 C      -2.501329     0.748212     2.767907 C          1 UNL1 0.000
    18 C      -1.856777     0.697354     1.525337 C          1 UNL1 0.000
    19 C      -2.626982     0.592752     0.359247 C          1 UNL1 0.000
    20 C      -4.020777     0.529361     0.434306 C          1 UNL1 0.000
    21 C      -0.395709     0.832091     1.473878 C          1 UNL1 0.000
    22 C       0.395330     0.047368     0.722460 C          1 UNL1 0.000
    23 H      -9.944931     3.207615     1.842359 H          1 UNL1 0.000
    24 H      -8.646216     5.291612     1.731867 H          1 UNL1 0.000
    25 H      -6.166723     5.193548     1.626048 H          1 UNL1 0.000
    26 H      -5.019890     3.057317     1.632402 H          1 UNL1 0.000
    27 H      -4.921350    -1.915471     1.807126 H          1 UNL1 0.000
    28 H      -5.986136    -4.093112     1.917567 H          1 UNL1 0.000
    29 H      -8.461061    -4.281247     2.007764 H          1 UNL1 0.000
    30 H      -9.839911    -2.246476     1.988625 H          1 UNL1 0.000
    31 H      -4.385826     0.722873     3.816270 H          1 UNL1 0.000
    32 H      -1.924344     0.840494     3.685470 H          1 UNL1 0.000
    33 H      -2.152773     0.582603    -0.619460 H          1 UNL1 0.000
    34 H      -4.610434     0.459439    -0.476466 H          1 UNL1 0.000
    35 H       0.020283     1.609992     2.107696 H          1 UNL1 0.000
    36 H      -0.070919    -0.747405     0.141221 H          1 UNL1 0.000
    37 C       1.822319     0.147549     0.626251 C          1 UNL1 0.000
    38 C       2.583814    -0.847794     0.047225 C          1 UNL1 0.000
    39 S       4.256190    -0.479555     0.049421 S          1 UNL1 0.000
    40 C       3.977269     1.022741     0.815050 C          1 UNL1 0.000
    41 C       2.638793     1.234762     1.067613 C          1 UNL1 0.000
    42 H       2.249709    -1.784605    -0.377594 H          1 UNL1 0.000
    43 H       4.805480     1.680168     1.041067 H          1 UNL1 0.000
    44 H       2.275120     2.138837     1.539627 H          1 UNL1 0.000
@<TRIPOS>BOND
     1      1      2   1
     2      1      3   1
     3      3      4   2
     4      4      5   1
     5      5      6   2
     6      6      7   1
     7      7      8   2
     8      8      3   1
     9      2      9   2
    10      9     10   1
    11     10     11   2
    12     11     12   1
    13     12     13   2
    14     13      2   1
    15      4     14   1
    16     14     13   1
    17     15     16   2
    18     16     17   1
    19     17     18   2
    20     18     19   1
    21     19     20   2
    22     20     15   1
    23     18     21   1
    24     21     22   2
    25      1     15   1
    26      5     23   1
    27      6     24   1
    28      7     25   1
    29      8     26   1
    30      9     27   1
    31     10     28   1
    32     11     29   1
    33     12     30   1
    34     16     31   1
    35     17     32   1
    36     19     33   1
    37     20     34   1
    38     21     35   1
    39     22     36   1
    40     37     38   2
    41     38     39   1
    42     39     40   1
    43     40     41   2
    44     41     37   1
    45     38     42   1
    46     40     43   1
    47     41     44   1
    48     22     37   1
