# Produced with molli package
@<TRIPOS>MOLECULE
H_7_Q
45 49 0 0 0
SMALL
USER_CHARGES

@<TRIPOS>ATOM
     1 N      -6.199744     0.601362     1.734967 N          1 UNL1 0.000
     2 C      -6.878697    -0.678670     1.748985 C          1 UNL1 0.000
     3 C      -6.899273     1.871325     1.770234 C          1 UNL1 0.000
     4 C      -8.300773     1.968809     1.786058 C          1 UNL1 0.000
     5 C      -8.929436     3.230568     1.823377 C          1 UNL1 0.000
     6 C      -8.189073     4.408579     1.846294 C          1 UNL1 0.000
     7 C      -6.806893     4.338598     1.830227 C          1 UNL1 0.000
     8 C      -6.175744     3.091598     1.791883 C          1 UNL1 0.000
     9 C      -6.136580    -1.887077     1.750709 C          1 UNL1 0.000
    10 C      -6.750012    -3.143700     1.768337 C          1 UNL1 0.000
    11 C      -8.131363    -3.234851     1.783123 C          1 UNL1 0.000
    12 C      -8.889425    -2.068196     1.779599 C          1 UNL1 0.000
    13 C      -8.279147    -0.797286     1.763073 C          1 UNL1 0.000
    14 S      -9.395906     0.577553     1.754875 S          1 UNL1 0.000
    15 C      -4.762635     0.616945     1.688612 C          1 UNL1 0.000
    16 C      -4.015941     0.633041     2.874792 C          1 UNL1 0.000
    17 C      -2.621097     0.698637     2.826608 C          1 UNL1 0.000
    18 C      -1.949829     0.735805     1.596684 C          1 UNL1 0.000
    19 C      -2.699070     0.713838     0.412429 C          1 UNL1 0.000
    20 C      -4.094878     0.650310     0.456390 C          1 UNL1 0.000
    21 C      -0.487793     0.884414     1.593922 C          1 UNL1 0.000
    22 C       0.327624     0.280365     0.713759 C          1 UNL1 0.000
    23 H     -10.015910     3.300745     1.834483 H          1 UNL1 0.000
    24 H      -8.691749     5.371269     1.875583 H          1 UNL1 0.000
    25 H      -6.211288     5.247671     1.847272 H          1 UNL1 0.000
    26 H      -5.088729     3.099714     1.780798 H          1 UNL1 0.000
    27 H      -5.049408    -1.877237     1.740041 H          1 UNL1 0.000
    28 H      -6.141405    -4.044336     1.770556 H          1 UNL1 0.000
    29 H      -8.619787    -4.205231     1.796592 H          1 UNL1 0.000
    30 H      -9.974778    -2.154459     1.789600 H          1 UNL1 0.000
    31 H      -4.525568     0.609214     3.834848 H          1 UNL1 0.000
    32 H      -2.064405     0.721478     3.760967 H          1 UNL1 0.000
    33 H      -2.209584     0.768178    -0.557054 H          1 UNL1 0.000
    34 H      -4.666830     0.645243    -0.468302 H          1 UNL1 0.000
    35 H      -0.087994     1.511051     2.387804 H          1 UNL1 0.000
    36 H      -0.058903    -0.401577    -0.038917 H          1 UNL1 0.000
    37 C       1.786138     0.419961     0.706271 C          1 UNL1 0.000
    38 N       2.468148    -0.672137     0.284270 N          1 UNL1 0.000
    39 C       3.816359    -0.550890     0.251924 C          1 UNL1 0.000
    40 C       4.469482     0.616877     0.607025 C          1 UNL1 0.000
    41 N       3.804428     1.721760     1.007320 N          1 UNL1 0.000
    42 C       2.453372     1.596600     1.042761 C          1 UNL1 0.000
    43 H       4.363649    -1.429037    -0.071147 H          1 UNL1 0.000
    44 H       5.550089     0.695535     0.575750 H          1 UNL1 0.000
    45 H       1.919683     2.491284     1.343637 H          1 UNL1 0.000
@<TRIPOS>BOND
     1      1      2   1
     2      1      3   1
     3      3      4   2
     4      4      5   1
     5      5      6   2
     6      6      7   1
     7      7      8   2
     8      8      3   1
     9      2      9   2
    10      9     10   1
    11     10     11   2
    12     11     12   1
    13     12     13   2
    14     13      2   1
    15      4     14   1
    16     14     13   1
    17     15     16   2
    18     16     17   1
    19     17     18   2
    20     18     19   1
    21     19     20   2
    22     20     15   1
    23     18     21   1
    24     21     22   2
    25      1     15   1
    26      5     23   1
    27      6     24   1
    28      7     25   1
    29      8     26   1
    30      9     27   1
    31     10     28   1
    32     11     29   1
    33     12     30   1
    34     16     31   1
    35     17     32   1
    36     19     33   1
    37     20     34   1
    38     21     35   1
    39     22     36   1
    40     37     38   2
    41     38     39   1
    42     39     40   2
    43     40     41   1
    44     41     42   2
    45     42     37   1
    46     39     43   1
    47     40     44   1
    48     42     45   1
    49     22     37   1
