# Produced with molli package
@<TRIPOS>MOLECULE
H_7_O
46 50 0 0 0
SMALL
USER_CHARGES

@<TRIPOS>ATOM
     1 N      -6.174877     0.466648     1.810948 N          1 UNL1 0.000
     2 C      -6.871063    -0.805313     1.835175 C          1 UNL1 0.000
     3 C      -6.856790     1.744933     1.835286 C          1 UNL1 0.000
     4 C      -8.256850     1.860242     1.877393 C          1 UNL1 0.000
     5 C      -8.869883     3.129898     1.894843 C          1 UNL1 0.000
     6 C      -8.114955     4.298452     1.873475 C          1 UNL1 0.000
     7 C      -6.733853     4.210535     1.836279 C          1 UNL1 0.000
     8 C      -6.117793     2.955238     1.818284 C          1 UNL1 0.000
     9 C      -6.145268    -2.024087     1.808540 C          1 UNL1 0.000
    10 C      -6.773315    -3.273051     1.832103 C          1 UNL1 0.000
    11 C      -8.154520    -3.346579     1.882125 C          1 UNL1 0.000
    12 C      -8.897135    -2.170022     1.906967 C          1 UNL1 0.000
    13 C      -8.271635    -0.906305     1.883360 C          1 UNL1 0.000
    14 S      -9.369761     0.482777     1.913971 S          1 UNL1 0.000
    15 C      -4.737911     0.455472     1.752010 C          1 UNL1 0.000
    16 C      -3.981265     0.398461     2.930968 C          1 UNL1 0.000
    17 C      -2.586501     0.342087     2.868804 C          1 UNL1 0.000
    18 C      -1.927232     0.357388     1.632803 C          1 UNL1 0.000
    19 C      -2.685430     0.417164     0.455871 C          1 UNL1 0.000
    20 C      -4.080788     0.469719     0.513292 C          1 UNL1 0.000
    21 C      -0.465423     0.229162     1.606771 C          1 UNL1 0.000
    22 C       0.337380     0.943141     0.800332 C          1 UNL1 0.000
    23 H      -9.955021     3.213559     1.926222 H          1 UNL1 0.000
    24 H      -8.605617     5.267667     1.887515 H          1 UNL1 0.000
    25 H      -6.127488     5.112487     1.821635 H          1 UNL1 0.000
    26 H      -5.030878     2.947435     1.791571 H          1 UNL1 0.000
    27 H      -5.058730    -2.029621     1.767800 H          1 UNL1 0.000
    28 H      -6.175579    -4.180689     1.810866 H          1 UNL1 0.000
    29 H      -8.654507    -4.310900     1.900761 H          1 UNL1 0.000
    30 H      -9.982797    -2.242912     1.944687 H          1 UNL1 0.000
    31 H      -4.482267     0.382433     3.895576 H          1 UNL1 0.000
    32 H      -2.017865     0.283696     3.794500 H          1 UNL1 0.000
    33 H      -2.200150     0.397092    -0.516816 H          1 UNL1 0.000
    34 H      -4.660634     0.502628    -0.405666 H          1 UNL1 0.000
    35 H      -0.043650    -0.491945     2.304937 H          1 UNL1 0.000
    36 H      -0.080059     1.682684     0.124425 H          1 UNL1 0.000
    37 C       1.800959     0.795230     0.770862 C          1 UNL1 0.000
    38 N       2.347823    -0.169971     1.547873 N          1 UNL1 0.000
    39 C       3.690071    -0.317017     1.507353 C          1 UNL1 0.000
    40 C       4.527041     0.458899     0.724874 C          1 UNL1 0.000
    41 C       3.953337     1.446954    -0.064928 C          1 UNL1 0.000
    42 C       2.570581     1.619666    -0.045114 C          1 UNL1 0.000
    43 H       4.086837    -1.103993     2.142302 H          1 UNL1 0.000
    44 H       5.598857     0.296401     0.730949 H          1 UNL1 0.000
    45 H       4.575523     2.077968    -0.693129 H          1 UNL1 0.000
    46 H       2.112721     2.387324    -0.659740 H          1 UNL1 0.000
@<TRIPOS>BOND
     1      1      2   1
     2      1      3   1
     3      3      4   2
     4      4      5   1
     5      5      6   2
     6      6      7   1
     7      7      8   2
     8      8      3   1
     9      2      9   2
    10      9     10   1
    11     10     11   2
    12     11     12   1
    13     12     13   2
    14     13      2   1
    15      4     14   1
    16     14     13   1
    17     15     16   2
    18     16     17   1
    19     17     18   2
    20     18     19   1
    21     19     20   2
    22     20     15   1
    23     18     21   1
    24     21     22   2
    25      1     15   1
    26      5     23   1
    27      6     24   1
    28      7     25   1
    29      8     26   1
    30      9     27   1
    31     10     28   1
    32     11     29   1
    33     12     30   1
    34     16     31   1
    35     17     32   1
    36     19     33   1
    37     20     34   1
    38     21     35   1
    39     22     36   1
    40     37     38   2
    41     38     39   1
    42     39     40   2
    43     40     41   1
    44     41     42   2
    45     42     37   1
    46     39     43   1
    47     40     44   1
    48     41     45   1
    49     42     46   1
    50     22     37   1
