# Produced with molli package
@<TRIPOS>MOLECULE
H_7_K
49 53 0 0 0
SMALL
USER_CHARGES

@<TRIPOS>ATOM
     1 N      -6.141373     0.521185     1.795321 N          1 UNL1 0.000
     2 C      -6.853615    -0.740812     1.804354 C          1 UNL1 0.000
     3 C      -6.808776     1.808925     1.795104 C          1 UNL1 0.000
     4 C      -8.207119     1.942510     1.770071 C          1 UNL1 0.000
     5 C      -8.803284     3.220445     1.764691 C          1 UNL1 0.000
     6 C      -8.033255     4.379291     1.787153 C          1 UNL1 0.000
     7 C      -6.653574     4.273606     1.816796 C          1 UNL1 0.000
     8 C      -6.054513     3.010365     1.821283 C          1 UNL1 0.000
     9 C      -6.143619    -1.968003     1.832166 C          1 UNL1 0.000
    10 C      -6.789948    -3.208250     1.841151 C          1 UNL1 0.000
    11 C      -8.173143    -3.263582     1.820673 C          1 UNL1 0.000
    12 C      -8.900151    -2.077746     1.791739 C          1 UNL1 0.000
    13 C      -8.256682    -0.823190     1.784111 C          1 UNL1 0.000
    14 S      -9.337025     0.579578     1.736211 S          1 UNL1 0.000
    15 C      -4.704882     0.500336     1.736544 C          1 UNL1 0.000
    16 C      -3.942823     0.475041     2.911870 C          1 UNL1 0.000
    17 C      -2.545712     0.502481     2.845731 C          1 UNL1 0.000
    18 C      -1.884000     0.549339     1.609129 C          1 UNL1 0.000
    19 C      -2.654492     0.573825     0.437736 C          1 UNL1 0.000
    20 C      -4.050849     0.542125     0.498450 C          1 UNL1 0.000
    21 C      -0.413392     0.639170     1.597032 C          1 UNL1 0.000
    22 C       0.368964     0.301114     0.560001 C          1 UNL1 0.000
    23 H      -9.887409     3.318725     1.741861 H          1 UNL1 0.000
    24 H      -8.511160     5.354947     1.782135 H          1 UNL1 0.000
    25 H      -6.035126     5.167239     1.836446 H          1 UNL1 0.000
    26 H      -4.967873     2.990259     1.847529 H          1 UNL1 0.000
    27 H      -5.056750    -1.986211     1.848422 H          1 UNL1 0.000
    28 H      -6.205641    -4.124529     1.863618 H          1 UNL1 0.000
    29 H      -8.687070    -4.220819     1.825968 H          1 UNL1 0.000
    30 H      -9.987315    -2.135790     1.773374 H          1 UNL1 0.000
    31 H      -4.440272     0.448077     3.878272 H          1 UNL1 0.000
    32 H      -1.980282     0.491538     3.775262 H          1 UNL1 0.000
    33 H      -2.186548     0.638029    -0.540754 H          1 UNL1 0.000
    34 H      -4.633491     0.569550    -0.419190 H          1 UNL1 0.000
    35 H       0.042721     1.000398     2.517470 H          1 UNL1 0.000
    36 H      -0.026516    -0.096514    -0.369356 H          1 UNL1 0.000
    37 C       1.825750     0.423818     0.620317 C          1 UNL1 0.000
    38 C       2.441169     1.678506     0.515975 C          1 UNL1 0.000
    39 C       3.834490     1.784922     0.542899 C          1 UNL1 0.000
    40 C       4.608304     0.626201     0.683965 C          1 UNL1 0.000
    41 C       4.003562    -0.631415     0.800091 C          1 UNL1 0.000
    42 C       2.610198    -0.727270     0.763684 C          1 UNL1 0.000
    43 N       6.069176     0.729707     0.703425 N          1 UNL1 0.000
    44 O       6.704642    -0.210909     1.201020 O          1 UNL1 0.000
    45 O       6.578994     1.749942     0.219411 O          1 UNL1 0.000
    46 H       1.838568     2.577862     0.401637 H          1 UNL1 0.000
    47 H       4.297025     2.765630     0.452708 H          1 UNL1 0.000
    48 H       4.597431    -1.536308     0.910268 H          1 UNL1 0.000
    49 H       2.138802    -1.704728     0.848177 H          1 UNL1 0.000
@<TRIPOS>BOND
     1      1      2   1
     2      1      3   1
     3      3      4   2
     4      4      5   1
     5      5      6   2
     6      6      7   1
     7      7      8   2
     8      8      3   1
     9      2      9   2
    10      9     10   1
    11     10     11   2
    12     11     12   1
    13     12     13   2
    14     13      2   1
    15      4     14   1
    16     14     13   1
    17     15     16   2
    18     16     17   1
    19     17     18   2
    20     18     19   1
    21     19     20   2
    22     20     15   1
    23     18     21   1
    24     21     22   2
    25      1     15   1
    26      5     23   1
    27      6     24   1
    28      7     25   1
    29      8     26   1
    30      9     27   1
    31     10     28   1
    32     11     29   1
    33     12     30   1
    34     16     31   1
    35     17     32   1
    36     19     33   1
    37     20     34   1
    38     21     35   1
    39     22     36   1
    40     37     38   2
    41     38     39   1
    42     39     40   2
    43     40     41   1
    44     41     42   2
    45     42     37   1
    46     43     44   2
    47     43     45   1
    48     40     43   1
    49     38     46   1
    50     39     47   1
    51     41     48   1
    52     42     49   1
    53     22     37   1
