# Produced with molli package
@<TRIPOS>MOLECULE
H_7_L
51 56 0 0 0
SMALL
USER_CHARGES

@<TRIPOS>ATOM
     1 N      -6.090536     0.506767     1.743115 N          1 UNL1 0.000
     2 C      -6.801489    -0.755310     1.803305 C          1 UNL1 0.000
     3 C      -6.756600     1.793979     1.747272 C          1 UNL1 0.000
     4 C      -8.154387     1.927704     1.804260 C          1 UNL1 0.000
     5 C      -8.751230     3.205224     1.807039 C          1 UNL1 0.000
     6 C      -7.982320     4.363618     1.753005 C          1 UNL1 0.000
     7 C      -6.603330     4.257569     1.694348 C          1 UNL1 0.000
     8 C      -6.003340     2.994464     1.691046 C          1 UNL1 0.000
     9 C      -6.090163    -1.982716     1.808193 C          1 UNL1 0.000
    10 C      -6.733305    -3.223050     1.861794 C          1 UNL1 0.000
    11 C      -8.115340    -3.278701     1.913707 C          1 UNL1 0.000
    12 C      -8.843650    -2.093021     1.913585 C          1 UNL1 0.000
    13 C      -8.202963    -0.837965     1.860186 C          1 UNL1 0.000
    14 S      -9.283773     0.564955     1.871795 S          1 UNL1 0.000
    15 C      -4.654658     0.478472     1.672405 C          1 UNL1 0.000
    16 C      -3.887580     0.513520     2.844962 C          1 UNL1 0.000
    17 C      -2.492974     0.466660     2.773622 C          1 UNL1 0.000
    18 C      -1.842471     0.395427     1.533884 C          1 UNL1 0.000
    19 C      -2.613021     0.351656     0.364199 C          1 UNL1 0.000
    20 C      -4.008401     0.398639     0.430678 C          1 UNL1 0.000
    21 C      -0.376654     0.301671     1.510839 C          1 UNL1 0.000
    22 C       0.401601     0.874139     0.578340 C          1 UNL1 0.000
    23 H      -9.834698     3.303320     1.851269 H          1 UNL1 0.000
    24 H      -8.460521     5.339143     1.755836 H          1 UNL1 0.000
    25 H      -5.986071     5.151197     1.650589 H          1 UNL1 0.000
    26 H      -4.917349     2.973144     1.642493 H          1 UNL1 0.000
    27 H      -5.003747    -2.001523     1.770414 H          1 UNL1 0.000
    28 H      -6.146962    -4.138266     1.862401 H          1 UNL1 0.000
    29 H      -8.627132    -4.236119     1.954914 H          1 UNL1 0.000
    30 H      -9.930011    -2.151726     1.956039 H          1 UNL1 0.000
    31 H      -4.379939     0.572021     3.812473 H          1 UNL1 0.000
    32 H      -1.918320     0.492217     3.697009 H          1 UNL1 0.000
    33 H      -2.138479     0.265177    -0.610222 H          1 UNL1 0.000
    34 H      -4.596040     0.362333    -0.483295 H          1 UNL1 0.000
    35 H       0.071802    -0.246349     2.336879 H          1 UNL1 0.000
    36 H      -0.015640     1.474687    -0.225095 H          1 UNL1 0.000
    37 C       1.866297     0.779190     0.612654 C          1 UNL1 0.000
    38 C       2.514158    -0.456154     0.727454 C          1 UNL1 0.000
    39 C       3.910793    -0.550012     0.754665 C          1 UNL1 0.000
    40 C       4.639862     0.639647     0.658727 C          1 UNL1 0.000
    41 C       4.030416     1.887091     0.528405 C          1 UNL1 0.000
    42 C       2.623197     1.955719     0.495647 C          1 UNL1 0.000
    43 N       6.000101     0.852810     0.667012 N          1 UNL1 0.000
    44 C       6.270409     2.190538     0.549337 C          1 UNL1 0.000
    45 C       5.069310     2.856077     0.458817 C          1 UNL1 0.000
    46 H       1.930793    -1.372711     0.792337 H          1 UNL1 0.000
    47 H       4.401005    -1.513392     0.847666 H          1 UNL1 0.000
    48 H       2.135018     2.921131     0.398381 H          1 UNL1 0.000
    49 H       6.693685     0.122791     0.751479 H          1 UNL1 0.000
    50 H       7.289752     2.552007     0.540379 H          1 UNL1 0.000
    51 H       4.946986     3.926374     0.357310 H          1 UNL1 0.000
@<TRIPOS>BOND
     1      1      2   1
     2      1      3   1
     3      3      4   2
     4      4      5   1
     5      5      6   2
     6      6      7   1
     7      7      8   2
     8      8      3   1
     9      2      9   2
    10      9     10   1
    11     10     11   2
    12     11     12   1
    13     12     13   2
    14     13      2   1
    15      4     14   1
    16     14     13   1
    17     15     16   2
    18     16     17   1
    19     17     18   2
    20     18     19   1
    21     19     20   2
    22     20     15   1
    23     18     21   1
    24     21     22   2
    25      1     15   1
    26      5     23   1
    27      6     24   1
    28      7     25   1
    29      8     26   1
    30      9     27   1
    31     10     28   1
    32     11     29   1
    33     12     30   1
    34     16     31   1
    35     17     32   1
    36     19     33   1
    37     20     34   1
    38     21     35   1
    39     22     36   1
    40     37     38   2
    41     38     39   1
    42     39     40   2
    43     40     41   1
    44     41     42   2
    45     42     37   1
    46     40     43   1
    47     43     44   1
    48     44     45   2
    49     45     41   1
    50     38     46   1
    51     39     47   1
    52     42     48   1
    53     43     49   1
    54     44     50   1
    55     45     51   1
    56     22     37   1
