# Produced with molli package
@<TRIPOS>MOLECULE
H_7_R
48 52 0 0 0
SMALL
USER_CHARGES

@<TRIPOS>ATOM
     1 N      -6.062472     0.483182     1.715328 N          1 UNL1 0.000
     2 C      -6.731686    -0.802417     1.767778 C          1 UNL1 0.000
     3 C      -6.771835     1.746838     1.707211 C          1 UNL1 0.000
     4 C      -8.174130     1.833080     1.745613 C          1 UNL1 0.000
     5 C      -8.814479     3.089169     1.728399 C          1 UNL1 0.000
     6 C      -8.084973     4.272732     1.676015 C          1 UNL1 0.000
     7 C      -6.702250     4.213705     1.642231 C          1 UNL1 0.000
     8 C      -6.059151     2.971963     1.658175 C          1 UNL1 0.000
     9 C      -5.980191    -2.005771     1.770465 C          1 UNL1 0.000
    10 C      -6.581911    -3.266962     1.818311 C          1 UNL1 0.000
    11 C      -7.961429    -3.368651     1.865749 C          1 UNL1 0.000
    12 C      -8.728736    -2.207844     1.864724 C          1 UNL1 0.000
    13 C      -8.129938    -0.932016     1.816116 C          1 UNL1 0.000
    14 S      -9.257295     0.433637     1.817408 S          1 UNL1 0.000
    15 C      -4.626410     0.500941     1.643345 C          1 UNL1 0.000
    16 C      -3.856924     0.509739     2.814312 C          1 UNL1 0.000
    17 C      -2.461142     0.486650     2.738468 C          1 UNL1 0.000
    18 C      -1.810102     0.465022     1.496354 C          1 UNL1 0.000
    19 C      -2.585019     0.454712     0.328436 C          1 UNL1 0.000
    20 C      -3.981071     0.478898     0.399247 C          1 UNL1 0.000
    21 C      -0.341807     0.381509     1.471152 C          1 UNL1 0.000
    22 C       0.439120     0.899692     0.508380 C          1 UNL1 0.000
    23 H      -9.901263     3.150171     1.756294 H          1 UNL1 0.000
    24 H      -8.596622     5.231086     1.663224 H          1 UNL1 0.000
    25 H      -6.115783     5.128013     1.603542 H          1 UNL1 0.000
    26 H      -4.972403     2.987046     1.631537 H          1 UNL1 0.000
    27 H      -4.893667    -1.989244     1.734344 H          1 UNL1 0.000
    28 H      -5.965341    -4.162169     1.817894 H          1 UNL1 0.000
    29 H      -8.441137    -4.342715     1.902983 H          1 UNL1 0.000
    30 H      -9.812741    -2.302893     1.901769 H          1 UNL1 0.000
    31 H      -4.347619     0.520567     3.784410 H          1 UNL1 0.000
    32 H      -1.886468     0.483002     3.662452 H          1 UNL1 0.000
    33 H      -2.117010     0.404532    -0.651077 H          1 UNL1 0.000
    34 H      -4.570535     0.461804    -0.514124 H          1 UNL1 0.000
    35 H       0.114439    -0.120254     2.323483 H          1 UNL1 0.000
    36 H       0.008409     1.440293    -0.328010 H          1 UNL1 0.000
    37 C       1.905393     0.814128     0.528047 C          1 UNL1 0.000
    38 N       2.466653    -0.170526     1.274654 N          1 UNL1 0.000
    39 C       3.820473    -0.250942     1.296732 C          1 UNL1 0.000
    40 C       4.636051     0.633731     0.613650 C          1 UNL1 0.000
    41 C       4.056945     1.644983    -0.151553 C          1 UNL1 0.000
    42 C       2.665050     1.726006    -0.203693 C          1 UNL1 0.000
    43 N       6.077161     0.507097     0.711877 N          1 UNL1 0.000
    44 O       6.752046     1.531381     0.545989 O          1 UNL1 0.000
    45 O       6.538060    -0.617168     0.954434 O          1 UNL1 0.000
    46 H       4.217590    -1.061198     1.903347 H          1 UNL1 0.000
    47 H       4.663796     2.361183    -0.699769 H          1 UNL1 0.000
    48 H       2.188720     2.505578    -0.790749 H          1 UNL1 0.000
@<TRIPOS>BOND
     1      1      2   1
     2      1      3   1
     3      3      4   2
     4      4      5   1
     5      5      6   2
     6      6      7   1
     7      7      8   2
     8      8      3   1
     9      2      9   2
    10      9     10   1
    11     10     11   2
    12     11     12   1
    13     12     13   2
    14     13      2   1
    15      4     14   1
    16     14     13   1
    17     15     16   2
    18     16     17   1
    19     17     18   2
    20     18     19   1
    21     19     20   2
    22     20     15   1
    23     18     21   1
    24     21     22   2
    25      1     15   1
    26      5     23   1
    27      6     24   1
    28      7     25   1
    29      8     26   1
    30      9     27   1
    31     10     28   1
    32     11     29   1
    33     12     30   1
    34     16     31   1
    35     17     32   1
    36     19     33   1
    37     20     34   1
    38     21     35   1
    39     22     36   1
    40     37     38   2
    41     38     39   1
    42     39     40   2
    43     40     41   1
    44     41     42   2
    45     42     37   1
    46     43     44   2
    47     43     45   1
    48     40     43   1
    49     39     46   1
    50     41     47   1
    51     42     48   1
    52     22     37   1
