# Produced with molli package
@<TRIPOS>MOLECULE
H_8_P
48 53 0 0 0
SMALL
USER_CHARGES

@<TRIPOS>ATOM
     1 N      -3.889503     0.546131     0.451903 N          1 UNL1 0.000
     2 C      -4.585725    -0.724297     0.499575 C          1 UNL1 0.000
     3 C      -4.572207     1.823455     0.413483 C          1 UNL1 0.000
     4 C      -5.969738     1.941747     0.505147 C          1 UNL1 0.000
     5 C      -6.585421     3.209352     0.461688 C          1 UNL1 0.000
     6 C      -5.835773     4.373619     0.328008 C          1 UNL1 0.000
     7 C      -4.457493     4.283312     0.236837 C          1 UNL1 0.000
     8 C      -3.838645     3.029850     0.279097 C          1 UNL1 0.000
     9 C      -3.864582    -1.945052     0.454591 C          1 UNL1 0.000
    10 C      -4.496309    -3.192128     0.493599 C          1 UNL1 0.000
    11 C      -5.875803    -3.261775     0.581925 C          1 UNL1 0.000
    12 C      -6.613373    -2.083288     0.633661 C          1 UNL1 0.000
    13 C      -5.984489    -0.821851     0.594777 C          1 UNL1 0.000
    14 S      -7.074628     0.570411     0.693231 S          1 UNL1 0.000
    15 C      -2.454879     0.534911     0.382261 C          1 UNL1 0.000
    16 C      -1.689503     0.596409     1.574324 C          1 UNL1 0.000
    17 C      -0.276056     0.571535     1.600568 C          1 UNL1 0.000
    18 C       0.521924     0.476484     0.439095 C          1 UNL1 0.000
    19 C      -0.186078     0.418930    -0.798657 C          1 UNL1 0.000
    20 C      -1.698735     0.451228    -0.827244 C          1 UNL1 0.000
    21 N       0.350856     0.333596    -2.028676 N          1 UNL1 0.000
    22 S      -0.906707     0.303827    -3.105721 S          1 UNL1 0.000
    23 N      -2.198173     0.389094    -2.074541 N          1 UNL1 0.000
    24 H      -7.668640     3.294621     0.531577 H          1 UNL1 0.000
    25 H      -6.328618     5.341227     0.293290 H          1 UNL1 0.000
    26 H      -3.856366     5.182365     0.127833 H          1 UNL1 0.000
    27 H      -2.755727     3.024060     0.194198 H          1 UNL1 0.000
    28 H      -2.781094    -1.957478     0.379523 H          1 UNL1 0.000
    29 H      -3.903911    -4.102493     0.450296 H          1 UNL1 0.000
    30 H      -6.378611    -4.224448     0.610003 H          1 UNL1 0.000
    31 H      -7.697614    -2.152592     0.705048 H          1 UNL1 0.000
    32 H      -2.222378     0.659776     2.524667 H          1 UNL1 0.000
    33 H       0.217919     0.614591     2.573129 H          1 UNL1 0.000
    34 C       1.979941     0.426089     0.486983 C          1 UNL1 0.000
    35 C       2.732189     1.583375     0.743265 C          1 UNL1 0.000
    36 C       4.128842     1.532802     0.792960 C          1 UNL1 0.000
    37 C       4.784330     0.317778     0.605319 C          1 UNL1 0.000
    38 C       4.056569    -0.835018     0.326498 C          1 UNL1 0.000
    39 C       2.661699    -0.783025     0.277213 C          1 UNL1 0.000
    40 O       6.148245     0.214066     0.605394 O          1 UNL1 0.000
    41 C       6.708492     0.595722     1.860404 C          1 UNL1 0.000
    42 H       2.233511     2.540292     0.882561 H          1 UNL1 0.000
    43 H       4.691533     2.447547     0.951216 H          1 UNL1 0.000
    44 H       4.573065    -1.773991     0.149051 H          1 UNL1 0.000
    45 H       2.107723    -1.694515     0.062571 H          1 UNL1 0.000
    46 H       7.770378     0.332026     1.844981 H          1 UNL1 0.000
    47 H       6.237529     0.050629     2.686369 H          1 UNL1 0.000
    48 H       6.634582     1.675922     2.019928 H          1 UNL1 0.000
@<TRIPOS>BOND
     1      1      2   1
     2      1      3   1
     3      3      4   2
     4      4      5   1
     5      5      6   2
     6      6      7   1
     7      7      8   2
     8      8      3   1
     9      2      9   2
    10      9     10   1
    11     10     11   2
    12     11     12   1
    13     12     13   2
    14     13      2   1
    15      4     14   1
    16     14     13   1
    17     15     16   2
    18     16     17   1
    19     17     18   2
    20     18     19   1
    21     19     20   1
    22     20     15   1
    23     19     21   2
    24     21     22   1
    25     22     23   1
    26     23     20   2
    27      1     15   1
    28      5     24   1
    29      6     25   1
    30      7     26   1
    31      8     27   1
    32      9     28   1
    33     10     29   1
    34     11     30   1
    35     12     31   1
    36     16     32   1
    37     17     33   1
    38     34     35   2
    39     35     36   1
    40     36     37   2
    41     37     38   1
    42     38     39   2
    43     39     34   1
    44     40     41   1
    45     37     40   1
    46     35     42   1
    47     36     43   1
    48     38     44   1
    49     39     45   1
    50     41     46   1
    51     41     47   1
    52     41     48   1
    53     18     34   1
