# Produced with molli package
@<TRIPOS>MOLECULE
H_8_Q
42 47 0 0 0
SMALL
USER_CHARGES

@<TRIPOS>ATOM
     1 N      -3.906230     0.482506     0.532500 N          1 UNL1 0.000
     2 C      -4.601149    -0.789916     0.557650 C          1 UNL1 0.000
     3 C      -4.591834     1.760524     0.539297 C          1 UNL1 0.000
     4 C      -5.992380     1.873800     0.551483 C          1 UNL1 0.000
     5 C      -6.608664     3.142284     0.545510 C          1 UNL1 0.000
     6 C      -5.857010     4.312821     0.538445 C          1 UNL1 0.000
     7 C      -4.475793     4.228158     0.544637 C          1 UNL1 0.000
     8 C      -3.856802     2.974094     0.548789 C          1 UNL1 0.000
     9 C      -3.877400    -2.009818     0.535123 C          1 UNL1 0.000
    10 C      -4.507161    -3.258095     0.575784 C          1 UNL1 0.000
    11 C      -5.888085    -3.330526     0.631208 C          1 UNL1 0.000
    12 C      -6.629411    -2.153595     0.638512 C          1 UNL1 0.000
    13 C      -6.002534    -0.890958     0.599578 C          1 UNL1 0.000
    14 S      -7.103307     0.495921     0.590024 S          1 UNL1 0.000
    15 C      -2.472877     0.479248     0.430597 C          1 UNL1 0.000
    16 C      -1.677431     0.274681     1.585160 C          1 UNL1 0.000
    17 C      -0.263334     0.262904     1.569831 C          1 UNL1 0.000
    18 C       0.514615     0.481944     0.407641 C          1 UNL1 0.000
    19 C      -0.228805     0.694701    -0.789704 C          1 UNL1 0.000
    20 C      -1.743357     0.685580    -0.780455 C          1 UNL1 0.000
    21 N       0.274876     0.915991    -2.017742 N          1 UNL1 0.000
    22 S      -1.009955     1.067401    -3.052336 S          1 UNL1 0.000
    23 N      -2.272161     0.892120    -1.999393 N          1 UNL1 0.000
    24 H      -7.694465     3.223369     0.547318 H          1 UNL1 0.000
    25 H      -6.350324     5.280738     0.531812 H          1 UNL1 0.000
    26 H      -3.872040     5.132012     0.544244 H          1 UNL1 0.000
    27 H      -2.770972     2.975432     0.559713 H          1 UNL1 0.000
    28 H      -2.792542    -2.022055     0.480802 H          1 UNL1 0.000
    29 H      -3.911657    -4.167418     0.560260 H          1 UNL1 0.000
    30 H      -6.389352    -4.293952     0.660844 H          1 UNL1 0.000
    31 H      -7.715458    -2.224930     0.670874 H          1 UNL1 0.000
    32 H      -2.183646     0.111602     2.538347 H          1 UNL1 0.000
    33 H       0.255549     0.079207     2.513755 H          1 UNL1 0.000
    34 C       1.973208     0.465559     0.418355 C          1 UNL1 0.000
    35 N       2.547590    -0.571845     1.084999 N          1 UNL1 0.000
    36 C       3.901388    -0.598376     1.090944 C          1 UNL1 0.000
    37 C       4.669062     0.383694     0.490672 C          1 UNL1 0.000
    38 N       4.119213     1.437156    -0.149031 N          1 UNL1 0.000
    39 C       2.761991     1.449289    -0.178491 C          1 UNL1 0.000
    40 H       4.357518    -1.442586     1.595313 H          1 UNL1 0.000
    41 H       5.752221     0.348732     0.507878 H          1 UNL1 0.000
    42 H       2.323592     2.297669    -0.694218 H          1 UNL1 0.000
@<TRIPOS>BOND
     1      1      2   1
     2      1      3   1
     3      3      4   2
     4      4      5   1
     5      5      6   2
     6      6      7   1
     7      7      8   2
     8      8      3   1
     9      2      9   2
    10      9     10   1
    11     10     11   2
    12     11     12   1
    13     12     13   2
    14     13      2   1
    15      4     14   1
    16     14     13   1
    17     15     16   2
    18     16     17   1
    19     17     18   2
    20     18     19   1
    21     19     20   1
    22     20     15   1
    23     19     21   2
    24     21     22   1
    25     22     23   1
    26     23     20   2
    27      1     15   1
    28      5     24   1
    29      6     25   1
    30      7     26   1
    31      8     27   1
    32      9     28   1
    33     10     29   1
    34     11     30   1
    35     12     31   1
    36     16     32   1
    37     17     33   1
    38     34     35   2
    39     35     36   1
    40     36     37   2
    41     37     38   1
    42     38     39   2
    43     39     34   1
    44     36     40   1
    45     37     41   1
    46     39     42   1
    47     18     34   1
