# Produced with molli package
@<TRIPOS>MOLECULE
H_8_T
47 52 0 0 0
SMALL
USER_CHARGES

@<TRIPOS>ATOM
     1 N      -3.930309     0.505800     0.553085 N          1 UNL1 0.000
     2 C      -4.618526    -0.769545     0.552043 C          1 UNL1 0.000
     3 C      -4.621210     1.779927     0.546421 C          1 UNL1 0.000
     4 C      -6.021261     1.886581     0.606220 C          1 UNL1 0.000
     5 C      -6.644382     3.151354     0.589601 C          1 UNL1 0.000
     6 C      -5.899819     4.324285     0.516671 C          1 UNL1 0.000
     7 C      -4.519023     4.245786     0.462091 C          1 UNL1 0.000
     8 C      -3.892935     2.995358     0.477541 C          1 UNL1 0.000
     9 C      -3.887764    -1.983806     0.492366 C          1 UNL1 0.000
    10 C      -4.511666    -3.235430     0.481117 C          1 UNL1 0.000
    11 C      -5.892512    -3.316262     0.532318 C          1 UNL1 0.000
    12 C      -6.639390    -2.144456     0.598609 C          1 UNL1 0.000
    13 C      -6.018535    -0.878558     0.610697 C          1 UNL1 0.000
    14 S      -7.121368     0.503157     0.715770 S          1 UNL1 0.000
    15 C      -2.496941     0.507857     0.462189 C          1 UNL1 0.000
    16 C      -1.711593     0.534353     1.642608 C          1 UNL1 0.000
    17 C      -0.297476     0.547196     1.642931 C          1 UNL1 0.000
    18 C       0.479392     0.532222     0.463808 C          1 UNL1 0.000
    19 C      -0.248879     0.501632    -0.762438 C          1 UNL1 0.000
    20 C      -1.761580     0.490208    -0.763210 C          1 UNL1 0.000
    21 N       0.267363     0.482972    -2.004508 N          1 UNL1 0.000
    22 S      -1.008944     0.455953    -3.059123 S          1 UNL1 0.000
    23 N      -2.282623     0.464629    -2.002716 N          1 UNL1 0.000
    24 H      -7.729682     3.227563     0.632185 H          1 UNL1 0.000
    25 H      -6.398355     5.289452     0.501261 H          1 UNL1 0.000
    26 H      -3.921250     5.151691     0.402686 H          1 UNL1 0.000
    27 H      -2.807913     3.000137     0.426349 H          1 UNL1 0.000
    28 H      -2.802536    -1.986584     0.445732 H          1 UNL1 0.000
    29 H      -3.912140    -4.140553     0.427870 H          1 UNL1 0.000
    30 H      -6.389263    -4.282397     0.520265 H          1 UNL1 0.000
    31 H      -7.724611    -2.222439     0.639982 H          1 UNL1 0.000
    32 H      -2.228107     0.547745     2.603953 H          1 UNL1 0.000
    33 H       0.215088     0.569466     2.606486 H          1 UNL1 0.000
    34 C       1.937609     0.554324     0.478930 C          1 UNL1 0.000
    35 C       2.633995     1.768503     0.558378 C          1 UNL1 0.000
    36 C       4.031864     1.793998     0.560355 C          1 UNL1 0.000
    37 C       4.761875     0.603898     0.483990 C          1 UNL1 0.000
    38 C       4.072700    -0.611901     0.417585 C          1 UNL1 0.000
    39 C       2.675039    -0.635768     0.413970 C          1 UNL1 0.000
    40 C       6.261604     0.616641     0.475062 C          1 UNL1 0.000
    41 H       2.089350     2.709163     0.604858 H          1 UNL1 0.000
    42 H       4.543509     2.752297     0.612105 H          1 UNL1 0.000
    43 H       4.620679    -1.549647     0.358203 H          1 UNL1 0.000
    44 H       2.163394    -1.593587     0.348194 H          1 UNL1 0.000
    45 H       6.638346     0.097232    -0.412162 H          1 UNL1 0.000
    46 H       6.648008     0.123657     1.372626 H          1 UNL1 0.000
    47 H       6.654422     1.638517     0.453527 H          1 UNL1 0.000
@<TRIPOS>BOND
     1      1      2   1
     2      1      3   1
     3      3      4   2
     4      4      5   1
     5      5      6   2
     6      6      7   1
     7      7      8   2
     8      8      3   1
     9      2      9   2
    10      9     10   1
    11     10     11   2
    12     11     12   1
    13     12     13   2
    14     13      2   1
    15      4     14   1
    16     14     13   1
    17     15     16   2
    18     16     17   1
    19     17     18   2
    20     18     19   1
    21     19     20   1
    22     20     15   1
    23     19     21   2
    24     21     22   1
    25     22     23   1
    26     23     20   2
    27      1     15   1
    28      5     24   1
    29      6     25   1
    30      7     26   1
    31      8     27   1
    32      9     28   1
    33     10     29   1
    34     11     30   1
    35     12     31   1
    36     16     32   1
    37     17     33   1
    38     34     35   2
    39     35     36   1
    40     36     37   2
    41     37     38   1
    42     38     39   2
    43     39     34   1
    44     37     40   1
    45     35     41   1
    46     36     42   1
    47     38     43   1
    48     39     44   1
    49     40     45   1
    50     40     46   1
    51     40     47   1
    52     18     34   1
