# Produced with molli package
@<TRIPOS>MOLECULE
H_8_N
41 46 0 0 0
SMALL
USER_CHARGES

@<TRIPOS>ATOM
     1 N      -3.922785     0.481670     0.512999 N          1 UNL1 0.000
     2 C      -4.604440    -0.797278     0.513723 C          1 UNL1 0.000
     3 C      -4.618791     1.752645     0.503096 C          1 UNL1 0.000
     4 C      -6.020611     1.852565     0.492770 C          1 UNL1 0.000
     5 C      -6.648284     3.115130     0.482297 C          1 UNL1 0.000
     6 C      -5.906846     4.292245     0.485821 C          1 UNL1 0.000
     7 C      -4.524669     4.220166     0.499102 C          1 UNL1 0.000
     8 C      -3.893876     2.971986     0.506459 C          1 UNL1 0.000
     9 C      -3.865641    -2.008258     0.529856 C          1 UNL1 0.000
    10 C      -4.481961    -3.263612     0.533804 C          1 UNL1 0.000
    11 C      -5.863188    -3.351611     0.522017 C          1 UNL1 0.000
    12 C      -6.618055    -2.183105     0.507827 C          1 UNL1 0.000
    13 C      -6.004941    -0.913333     0.505066 C          1 UNL1 0.000
    14 S      -7.118675     0.463277     0.490271 S          1 UNL1 0.000
    15 C      -2.488098     0.488909     0.443149 C          1 UNL1 0.000
    16 C      -1.720877     0.520514     1.638328 C          1 UNL1 0.000
    17 C      -0.308056     0.525138     1.663919 C          1 UNL1 0.000
    18 C       0.470263     0.497716     0.492104 C          1 UNL1 0.000
    19 C      -0.223239     0.461931    -0.750096 C          1 UNL1 0.000
    20 C      -1.736230     0.459818    -0.773655 C          1 UNL1 0.000
    21 N       0.314175     0.428349    -1.982711 N          1 UNL1 0.000
    22 S      -0.947026     0.402236    -3.057208 S          1 UNL1 0.000
    23 N      -2.237614     0.427202    -2.020746 N          1 UNL1 0.000
    24 H      -7.734723     3.186370     0.469057 H          1 UNL1 0.000
    25 H      -6.408908     5.255695     0.475765 H          1 UNL1 0.000
    26 H      -3.929538     5.129784     0.500148 H          1 UNL1 0.000
    27 H      -2.807775     2.982064     0.512402 H          1 UNL1 0.000
    28 H      -2.779523    -2.005913     0.537680 H          1 UNL1 0.000
    29 H      -3.876332    -4.166201     0.543074 H          1 UNL1 0.000
    30 H      -6.354157    -4.320801     0.521876 H          1 UNL1 0.000
    31 H      -7.703610    -2.266929     0.496954 H          1 UNL1 0.000
    32 H      -2.254568     0.540394     2.590343 H          1 UNL1 0.000
    33 H       0.191845     0.546928     2.633178 H          1 UNL1 0.000
    34 C       1.915145     0.490086     0.534682 C          1 UNL1 0.000
    35 C       2.635660     1.662980     0.636174 C          1 UNL1 0.000
    36 S       4.324821     1.383543     0.676955 S          1 UNL1 0.000
    37 C       4.103450    -0.308334     0.556589 C          1 UNL1 0.000
    38 C       2.771073    -0.652706     0.488774 C          1 UNL1 0.000
    39 H       2.261496     2.676908     0.681800 H          1 UNL1 0.000
    40 H       4.959970    -0.968146     0.537996 H          1 UNL1 0.000
    41 H       2.428624    -1.676976     0.404042 H          1 UNL1 0.000
@<TRIPOS>BOND
     1      1      2   1
     2      1      3   1
     3      3      4   2
     4      4      5   1
     5      5      6   2
     6      6      7   1
     7      7      8   2
     8      8      3   1
     9      2      9   2
    10      9     10   1
    11     10     11   2
    12     11     12   1
    13     12     13   2
    14     13      2   1
    15      4     14   1
    16     14     13   1
    17     15     16   2
    18     16     17   1
    19     17     18   2
    20     18     19   1
    21     19     20   1
    22     20     15   1
    23     19     21   2
    24     21     22   1
    25     22     23   1
    26     23     20   2
    27      1     15   1
    28      5     24   1
    29      6     25   1
    30      7     26   1
    31      8     27   1
    32      9     28   1
    33     10     29   1
    34     11     30   1
    35     12     31   1
    36     16     32   1
    37     17     33   1
    38     34     35   2
    39     35     36   1
    40     36     37   1
    41     37     38   2
    42     38     34   1
    43     35     39   1
    44     37     40   1
    45     38     41   1
    46     18     34   1
