# Produced with molli package
@<TRIPOS>MOLECULE
H_8_K
46 51 0 0 0
SMALL
USER_CHARGES

@<TRIPOS>ATOM
     1 N      -4.009372     0.569952     0.557352 N          1 UNL1 0.000
     2 C      -4.720032    -0.692740     0.578046 C          1 UNL1 0.000
     3 C      -4.675701     1.856909     0.560900 C          1 UNL1 0.000
     4 C      -6.074405     1.989535     0.591198 C          1 UNL1 0.000
     5 C      -6.672270     3.266507     0.598934 C          1 UNL1 0.000
     6 C      -5.903763     4.426015     0.578498 C          1 UNL1 0.000
     7 C      -4.523995     4.321719     0.547453 C          1 UNL1 0.000
     8 C      -3.922818     3.059121     0.537399 C          1 UNL1 0.000
     9 C      -4.009430    -1.920516     0.577298 C          1 UNL1 0.000
    10 C      -4.654557    -3.161122     0.601592 C          1 UNL1 0.000
    11 C      -6.037318    -3.216865     0.626855 C          1 UNL1 0.000
    12 C      -6.764907    -2.031120     0.629092 C          1 UNL1 0.000
    13 C      -6.122653    -0.776078     0.606720 C          1 UNL1 0.000
    14 S      -7.204003     0.626185     0.621316 S          1 UNL1 0.000
    15 C      -2.575770     0.544984     0.478475 C          1 UNL1 0.000
    16 C      -1.800827     0.572117     1.665950 C          1 UNL1 0.000
    17 C      -0.387370     0.558189     1.680637 C          1 UNL1 0.000
    18 C       0.400807     0.509263     0.509875 C          1 UNL1 0.000
    19 C      -0.316758     0.476907    -0.722788 C          1 UNL1 0.000
    20 C      -1.829599     0.497083    -0.739282 C          1 UNL1 0.000
    21 N       0.213673     0.432444    -1.958346 N          1 UNL1 0.000
    22 S      -1.053014     0.421357    -3.026844 S          1 UNL1 0.000
    23 N      -2.337032     0.467126    -1.983803 N          1 UNL1 0.000
    24 H      -7.756634     3.363223     0.619455 H          1 UNL1 0.000
    25 H      -6.383264     5.400942     0.583614 H          1 UNL1 0.000
    26 H      -3.908101     5.217165     0.527516 H          1 UNL1 0.000
    27 H      -2.837227     3.043939     0.507304 H          1 UNL1 0.000
    28 H      -2.923777    -1.943303     0.555338 H          1 UNL1 0.000
    29 H      -4.070315    -4.077742     0.597668 H          1 UNL1 0.000
    30 H      -6.550634    -4.174300     0.643032 H          1 UNL1 0.000
    31 H      -7.852041    -2.089602     0.647602 H          1 UNL1 0.000
    32 H      -2.326921     0.606929     2.621798 H          1 UNL1 0.000
    33 H       0.113085     0.581017     2.650468 H          1 UNL1 0.000
    34 C       1.860109     0.499952     0.542026 C          1 UNL1 0.000
    35 C       2.575610    -0.687948     0.310762 C          1 UNL1 0.000
    36 C       3.972657    -0.701932     0.343464 C          1 UNL1 0.000
    37 C       4.659531     0.485292     0.614706 C          1 UNL1 0.000
    38 C       3.971628     1.679258     0.850972 C          1 UNL1 0.000
    39 C       2.574810     1.680099     0.812586 C          1 UNL1 0.000
    40 N       6.119463     0.477103     0.654052 N          1 UNL1 0.000
    41 O       6.707588    -0.333431    -0.073186 O          1 UNL1 0.000
    42 O       6.673102     1.281516     1.418740 O          1 UNL1 0.000
    43 H       2.042343    -1.613284     0.097025 H          1 UNL1 0.000
    44 H       4.505043    -1.632553     0.159740 H          1 UNL1 0.000
    45 H       4.504384     2.605952     1.053715 H          1 UNL1 0.000
    46 H       2.041877     2.614460     0.982821 H          1 UNL1 0.000
@<TRIPOS>BOND
     1      1      2   1
     2      1      3   1
     3      3      4   2
     4      4      5   1
     5      5      6   2
     6      6      7   1
     7      7      8   2
     8      8      3   1
     9      2      9   2
    10      9     10   1
    11     10     11   2
    12     11     12   1
    13     12     13   2
    14     13      2   1
    15      4     14   1
    16     14     13   1
    17     15     16   2
    18     16     17   1
    19     17     18   2
    20     18     19   1
    21     19     20   1
    22     20     15   1
    23     19     21   2
    24     21     22   1
    25     22     23   1
    26     23     20   2
    27      1     15   1
    28      5     24   1
    29      6     25   1
    30      7     26   1
    31      8     27   1
    32      9     28   1
    33     10     29   1
    34     11     30   1
    35     12     31   1
    36     16     32   1
    37     17     33   1
    38     34     35   2
    39     35     36   1
    40     36     37   2
    41     37     38   1
    42     38     39   2
    43     39     34   1
    44     40     41   2
    45     40     42   1
    46     37     40   1
    47     35     43   1
    48     36     44   1
    49     38     45   1
    50     39     46   1
    51     18     34   1
