# Produced with molli package
@<TRIPOS>MOLECULE
H_8_M
45 50 0 0 0
SMALL
USER_CHARGES

@<TRIPOS>ATOM
     1 N      -3.945839     0.518181     0.555032 N          1 UNL1 0.000
     2 C      -4.652237    -0.746639     0.507838 C          1 UNL1 0.000
     3 C      -4.619449     1.801586     0.571496 C          1 UNL1 0.000
     4 C      -6.018452     1.925734     0.624716 C          1 UNL1 0.000
     5 C      -6.625255     3.198414     0.621529 C          1 UNL1 0.000
     6 C      -5.865068     4.362422     0.572094 C          1 UNL1 0.000
     7 C      -4.484831     4.266814     0.530435 C          1 UNL1 0.000
     8 C      -3.874847     3.008247     0.531155 C          1 UNL1 0.000
     9 C      -3.939027    -1.968332     0.403822 C          1 UNL1 0.000
    10 C      -4.580880    -3.209585     0.346931 C          1 UNL1 0.000
    11 C      -5.962677    -3.272461     0.397184 C          1 UNL1 0.000
    12 C      -6.692638    -2.093287     0.506519 C          1 UNL1 0.000
    13 C      -6.053721    -0.837665     0.562353 C          1 UNL1 0.000
    14 S      -7.136364     0.555326     0.715266 S          1 UNL1 0.000
    15 C      -2.511751     0.501645     0.479377 C          1 UNL1 0.000
    16 C      -1.739068     0.480814     1.668426 C          1 UNL1 0.000
    17 C      -0.324761     0.465973     1.685099 C          1 UNL1 0.000
    18 C       0.464454     0.468262     0.514400 C          1 UNL1 0.000
    19 C      -0.250729     0.486622    -0.719580 C          1 UNL1 0.000
    20 C      -1.762736     0.504523    -0.737901 C          1 UNL1 0.000
    21 N       0.281757     0.491734    -1.955030 N          1 UNL1 0.000
    22 S      -0.982760     0.517287    -3.025341 S          1 UNL1 0.000
    23 N      -2.268366     0.522406    -1.983472 N          1 UNL1 0.000
    24 H      -7.709850     3.288024     0.656460 H          1 UNL1 0.000
    25 H      -6.351203     5.334055     0.566034 H          1 UNL1 0.000
    26 H      -3.875395     5.166051     0.491638 H          1 UNL1 0.000
    27 H      -2.789539     2.999752     0.490396 H          1 UNL1 0.000
    28 H      -2.854163    -1.985333     0.355314 H          1 UNL1 0.000
    29 H      -3.994791    -4.120786     0.258983 H          1 UNL1 0.000
    30 H      -6.473340    -4.230305     0.350730 H          1 UNL1 0.000
    31 H      -7.778858    -2.157235     0.546678 H          1 UNL1 0.000
    32 H      -2.266719     0.476875     2.624035 H          1 UNL1 0.000
    33 H       0.175288     0.451392     2.655282 H          1 UNL1 0.000
    34 C       1.922795     0.458241     0.542162 C          1 UNL1 0.000
    35 C       2.644635     1.658715     0.623910 C          1 UNL1 0.000
    36 C       4.043106     1.653376     0.634824 C          1 UNL1 0.000
    37 C       4.740119     0.443904     0.566973 C          1 UNL1 0.000
    38 C       4.032011    -0.758759     0.492531 C          1 UNL1 0.000
    39 C       2.633435    -0.750015     0.480651 C          1 UNL1 0.000
    40 C       6.173677     0.437485     0.569767 C          1 UNL1 0.000
    41 N       7.334360     0.432744     0.575017 N          1 UNL1 0.000
    42 H       2.118718     2.611088     0.664985 H          1 UNL1 0.000
    43 H       4.579927     2.598758     0.688399 H          1 UNL1 0.000
    44 H       4.560163    -1.708802     0.435213 H          1 UNL1 0.000
    45 H       2.098756    -1.695758     0.409920 H          1 UNL1 0.000
@<TRIPOS>BOND
     1      1      2   1
     2      1      3   1
     3      3      4   2
     4      4      5   1
     5      5      6   2
     6      6      7   1
     7      7      8   2
     8      8      3   1
     9      2      9   2
    10      9     10   1
    11     10     11   2
    12     11     12   1
    13     12     13   2
    14     13      2   1
    15      4     14   1
    16     14     13   1
    17     15     16   2
    18     16     17   1
    19     17     18   2
    20     18     19   1
    21     19     20   1
    22     20     15   1
    23     19     21   2
    24     21     22   1
    25     22     23   1
    26     23     20   2
    27      1     15   1
    28      5     24   1
    29      6     25   1
    30      7     26   1
    31      8     27   1
    32      9     28   1
    33     10     29   1
    34     11     30   1
    35     12     31   1
    36     16     32   1
    37     17     33   1
    38     34     35   2
    39     35     36   1
    40     36     37   2
    41     37     38   1
    42     38     39   2
    43     39     34   1
    44     40     41   3
    45     37     40   1
    46     35     42   1
    47     36     43   1
    48     38     44   1
    49     39     45   1
    50     18     34   1
