# Produced with molli package
@<TRIPOS>MOLECULE
H_8_O
43 48 0 0 0
SMALL
USER_CHARGES

@<TRIPOS>ATOM
     1 N      -3.898652     0.494625     0.429468 N          1 UNL1 0.000
     2 C      -4.573782    -0.787425     0.431626 C          1 UNL1 0.000
     3 C      -4.601095     1.762350     0.436888 C          1 UNL1 0.000
     4 C      -6.002624     1.855597     0.478913 C          1 UNL1 0.000
     5 C      -6.636513     3.115239     0.483798 C          1 UNL1 0.000
     6 C      -5.901529     4.296024     0.450725 C          1 UNL1 0.000
     7 C      -4.519548     4.230683     0.414271 C          1 UNL1 0.000
     8 C      -3.882921     2.985522     0.408642 C          1 UNL1 0.000
     9 C      -3.830075    -1.994458     0.387237 C          1 UNL1 0.000
    10 C      -4.440805    -3.252583     0.390949 C          1 UNL1 0.000
    11 C      -5.820966    -3.347352     0.436794 C          1 UNL1 0.000
    12 C      -6.580620    -2.182662     0.478948 C          1 UNL1 0.000
    13 C      -5.973164    -0.910210     0.477290 C          1 UNL1 0.000
    14 S      -7.092313     0.461028     0.539180 S          1 UNL1 0.000
    15 C      -2.464146     0.510823     0.357735 C          1 UNL1 0.000
    16 C      -1.695657     0.460374     1.548144 C          1 UNL1 0.000
    17 C      -0.282656     0.482166     1.567922 C          1 UNL1 0.000
    18 C       0.509948     0.573047     0.402009 C          1 UNL1 0.000
    19 C      -0.198698     0.626984    -0.831827 C          1 UNL1 0.000
    20 C      -1.711801     0.587342    -0.855326 C          1 UNL1 0.000
    21 N       0.332643     0.726102    -2.064228 N          1 UNL1 0.000
    22 S      -0.928637     0.715395    -3.137716 S          1 UNL1 0.000
    23 N      -2.215820     0.638849    -2.101010 N          1 UNL1 0.000
    24 H      -7.722928     3.181139     0.513205 H          1 UNL1 0.000
    25 H      -6.408407     5.256941     0.452869 H          1 UNL1 0.000
    26 H      -3.929057     5.142815     0.386904 H          1 UNL1 0.000
    27 H      -2.797436     3.000781     0.377173 H          1 UNL1 0.000
    28 H      -2.744387    -1.986837     0.343292 H          1 UNL1 0.000
    29 H      -3.830955    -4.151705     0.354106 H          1 UNL1 0.000
    30 H      -6.307193    -4.318875     0.436930 H          1 UNL1 0.000
    31 H      -7.665271    -2.271576     0.511802 H          1 UNL1 0.000
    32 H      -2.224524     0.398028     2.500679 H          1 UNL1 0.000
    33 H       0.220266     0.425085     2.535130 H          1 UNL1 0.000
    34 C       1.962273     0.602376     0.437020 C          1 UNL1 0.000
    35 N       2.565742    -0.599461     0.605224 N          1 UNL1 0.000
    36 C       3.916588    -0.613027     0.633949 C          1 UNL1 0.000
    37 C       4.702501     0.523281     0.540223 C          1 UNL1 0.000
    38 C       4.067143     1.750772     0.400553 C          1 UNL1 0.000
    39 C       2.676877     1.794633     0.342617 C          1 UNL1 0.000
    40 H       4.366199    -1.596550     0.736510 H          1 UNL1 0.000
    41 H       5.783829     0.452595     0.573404 H          1 UNL1 0.000
    42 H       4.647807     2.665992     0.330193 H          1 UNL1 0.000
    43 H       2.163253     2.743289     0.225608 H          1 UNL1 0.000
@<TRIPOS>BOND
     1      1      2   1
     2      1      3   1
     3      3      4   2
     4      4      5   1
     5      5      6   2
     6      6      7   1
     7      7      8   2
     8      8      3   1
     9      2      9   2
    10      9     10   1
    11     10     11   2
    12     11     12   1
    13     12     13   2
    14     13      2   1
    15      4     14   1
    16     14     13   1
    17     15     16   2
    18     16     17   1
    19     17     18   2
    20     18     19   1
    21     19     20   1
    22     20     15   1
    23     19     21   2
    24     21     22   1
    25     22     23   1
    26     23     20   2
    27      1     15   1
    28      5     24   1
    29      6     25   1
    30      7     26   1
    31      8     27   1
    32      9     28   1
    33     10     29   1
    34     11     30   1
    35     12     31   1
    36     16     32   1
    37     17     33   1
    38     34     35   2
    39     35     36   1
    40     36     37   2
    41     37     38   1
    42     38     39   2
    43     39     34   1
    44     36     40   1
    45     37     41   1
    46     38     42   1
    47     39     43   1
    48     18     34   1
