# Produced with molli package
@<TRIPOS>MOLECULE
H_8_R
45 50 0 0 0
SMALL
USER_CHARGES

@<TRIPOS>ATOM
     1 N      -3.976747     0.533729     0.614071 N          1 UNL1 0.000
     2 C      -4.678038    -0.735495     0.607893 C          1 UNL1 0.000
     3 C      -4.654630     1.814624     0.604053 C          1 UNL1 0.000
     4 C      -6.055158     1.934275     0.612688 C          1 UNL1 0.000
     5 C      -6.665580     3.205299     0.605159 C          1 UNL1 0.000
     6 C      -5.908086     4.371881     0.587958 C          1 UNL1 0.000
     7 C      -4.527044     4.280437     0.574778 C          1 UNL1 0.000
     8 C      -3.913255     3.023675     0.580546 C          1 UNL1 0.000
     9 C      -3.957591    -1.957948     0.618121 C          1 UNL1 0.000
    10 C      -4.591636    -3.204244     0.601549 C          1 UNL1 0.000
    11 C      -5.973691    -3.271746     0.580579 C          1 UNL1 0.000
    12 C      -6.711198    -2.092062     0.583598 C          1 UNL1 0.000
    13 C      -6.079808    -0.831207     0.601079 C          1 UNL1 0.000
    14 S      -7.173260     0.561043     0.624921 S          1 UNL1 0.000
    15 C      -2.543092     0.517274     0.531697 C          1 UNL1 0.000
    16 C      -1.760316     0.640063     1.706925 C          1 UNL1 0.000
    17 C      -0.346263     0.607756     1.712558 C          1 UNL1 0.000
    18 C       0.436548     0.424276     0.549364 C          1 UNL1 0.000
    19 C      -0.291806     0.306285    -0.670202 C          1 UNL1 0.000
    20 C      -1.803488     0.360780    -0.680797 C          1 UNL1 0.000
    21 N       0.225806     0.138017    -1.901658 N          1 UNL1 0.000
    22 S      -1.047550     0.091278    -2.960796 S          1 UNL1 0.000
    23 N      -2.320284     0.239019    -1.915931 N          1 UNL1 0.000
    24 H      -7.751010     3.291537     0.609215 H          1 UNL1 0.000
    25 H      -6.396815     5.342177     0.580223 H          1 UNL1 0.000
    26 H      -3.919245     5.181524     0.556164 H          1 UNL1 0.000
    27 H      -2.827060     3.019358     0.561367 H          1 UNL1 0.000
    28 H      -2.871967    -1.972167     0.637544 H          1 UNL1 0.000
    29 H      -3.999235    -4.115546     0.602569 H          1 UNL1 0.000
    30 H      -6.478778    -4.233490     0.564094 H          1 UNL1 0.000
    31 H      -7.797857    -2.159915     0.571769 H          1 UNL1 0.000
    32 H      -2.277513     0.766272     2.659830 H          1 UNL1 0.000
    33 H       0.165398     0.722400     2.670579 H          1 UNL1 0.000
    34 C       1.893003     0.373331     0.571475 C          1 UNL1 0.000
    35 N       2.507546     1.457515     1.112958 N          1 UNL1 0.000
    36 C       3.865449     1.475350     1.119278 C          1 UNL1 0.000
    37 C       4.639025     0.432764     0.636056 C          1 UNL1 0.000
    38 C       4.004487    -0.695932     0.118804 C          1 UNL1 0.000
    39 C       2.610308    -0.721424     0.084198 C          1 UNL1 0.000
    40 N       6.090376     0.526836     0.669599 N          1 UNL1 0.000
    41 O       6.737262    -0.369563     0.112369 O          1 UNL1 0.000
    42 O       6.591133     1.497133     1.256258 O          1 UNL1 0.000
    43 H       4.300461     2.383148     1.530738 H          1 UNL1 0.000
    44 H       4.567500    -1.544268    -0.262519 H          1 UNL1 0.000
    45 H       2.093739    -1.585500    -0.325214 H          1 UNL1 0.000
@<TRIPOS>BOND
     1      1      2   1
     2      1      3   1
     3      3      4   2
     4      4      5   1
     5      5      6   2
     6      6      7   1
     7      7      8   2
     8      8      3   1
     9      2      9   2
    10      9     10   1
    11     10     11   2
    12     11     12   1
    13     12     13   2
    14     13      2   1
    15      4     14   1
    16     14     13   1
    17     15     16   2
    18     16     17   1
    19     17     18   2
    20     18     19   1
    21     19     20   1
    22     20     15   1
    23     19     21   2
    24     21     22   1
    25     22     23   1
    26     23     20   2
    27      1     15   1
    28      5     24   1
    29      6     25   1
    30      7     26   1
    31      8     27   1
    32      9     28   1
    33     10     29   1
    34     11     30   1
    35     12     31   1
    36     16     32   1
    37     17     33   1
    38     34     35   2
    39     35     36   1
    40     36     37   2
    41     37     38   1
    42     38     39   2
    43     39     34   1
    44     40     41   2
    45     40     42   1
    46     37     40   1
    47     36     43   1
    48     38     44   1
    49     39     45   1
    50     18     34   1
