# Produced with molli package
@<TRIPOS>MOLECULE
H_8_L
48 54 0 0 0
SMALL
USER_CHARGES

@<TRIPOS>ATOM
     1 N      -3.871902     0.498149     0.439346 N          1 UNL1 0.000
     2 C      -4.570227    -0.771609     0.449955 C          1 UNL1 0.000
     3 C      -4.552338     1.777741     0.416971 C          1 UNL1 0.000
     4 C      -5.952170     1.895975     0.456596 C          1 UNL1 0.000
     5 C      -6.564888     3.165489     0.421457 C          1 UNL1 0.000
     6 C      -5.809972     4.332051     0.353179 C          1 UNL1 0.000
     7 C      -4.429122     4.242402     0.324007 C          1 UNL1 0.000
     8 C      -3.813401     2.987180     0.357088 C          1 UNL1 0.000
     9 C      -3.848879    -1.992182     0.405735 C          1 UNL1 0.000
    10 C      -4.482288    -3.239062     0.414340 C          1 UNL1 0.000
    11 C      -5.863684    -3.308568     0.467358 C          1 UNL1 0.000
    12 C      -6.601737    -2.130145     0.511212 C          1 UNL1 0.000
    13 C      -5.971323    -0.868930     0.502704 C          1 UNL1 0.000
    14 S      -7.064748     0.522610     0.567276 S          1 UNL1 0.000
    15 C      -2.437525     0.487783     0.363886 C          1 UNL1 0.000
    16 C      -1.665518     0.443203     1.552633 C          1 UNL1 0.000
    17 C      -0.251592     0.439503     1.569351 C          1 UNL1 0.000
    18 C       0.538561     0.480556     0.399721 C          1 UNL1 0.000
    19 C      -0.175424     0.524066    -0.834236 C          1 UNL1 0.000
    20 C      -1.688213     0.527452    -0.852661 C          1 UNL1 0.000
    21 N       0.355140     0.567306    -2.069694 N          1 UNL1 0.000
    22 S      -0.908830     0.611481    -3.138331 S          1 UNL1 0.000
    23 N      -2.194863     0.573017    -2.097432 N          1 UNL1 0.000
    24 H      -7.650049     3.250572     0.446886 H          1 UNL1 0.000
    25 H      -6.300377     5.301027     0.323643 H          1 UNL1 0.000
    26 H      -3.822999     5.143166     0.271310 H          1 UNL1 0.000
    27 H      -2.727556     2.983564     0.328542 H          1 UNL1 0.000
    28 H      -2.763812    -2.003759     0.355870 H          1 UNL1 0.000
    29 H      -3.889765    -4.149492     0.375131 H          1 UNL1 0.000
    30 H      -6.367832    -4.270935     0.471546 H          1 UNL1 0.000
    31 H      -7.687673    -2.199128     0.550217 H          1 UNL1 0.000
    32 H      -2.192892     0.412851     2.507697 H          1 UNL1 0.000
    33 H       0.250147     0.406191     2.538255 H          1 UNL1 0.000
    34 C       1.997352     0.488464     0.433286 C          1 UNL1 0.000
    35 C       2.718450    -0.712879     0.389158 C          1 UNL1 0.000
    36 C       4.118468    -0.734856     0.413929 C          1 UNL1 0.000
    37 C       4.782118     0.493771     0.484694 C          1 UNL1 0.000
    38 C       4.106120     1.711637     0.535360 C          1 UNL1 0.000
    39 C       2.697252     1.706905     0.512333 C          1 UNL1 0.000
    40 N       6.129344     0.777260     0.510729 N          1 UNL1 0.000
    41 C       6.326728     2.131176     0.579509 C          1 UNL1 0.000
    42 C       5.090852     2.736003     0.596989 C          1 UNL1 0.000
    43 H       2.185889    -1.660268     0.322281 H          1 UNL1 0.000
    44 H       4.660433    -1.673640     0.369726 H          1 UNL1 0.000
    45 H       2.158845     2.650255     0.541982 H          1 UNL1 0.000
    46 H       6.861593     0.082029     0.477167 H          1 UNL1 0.000
    47 H       7.325498     2.545649     0.605618 H          1 UNL1 0.000
    48 H       4.910594     3.801933     0.643093 H          1 UNL1 0.000
@<TRIPOS>BOND
     1      1      2   1
     2      1      3   1
     3      3      4   2
     4      4      5   1
     5      5      6   2
     6      6      7   1
     7      7      8   2
     8      8      3   1
     9      2      9   2
    10      9     10   1
    11     10     11   2
    12     11     12   1
    13     12     13   2
    14     13      2   1
    15      4     14   1
    16     14     13   1
    17     15     16   2
    18     16     17   1
    19     17     18   2
    20     18     19   1
    21     19     20   1
    22     20     15   1
    23     19     21   2
    24     21     22   1
    25     22     23   1
    26     23     20   2
    27      1     15   1
    28      5     24   1
    29      6     25   1
    30      7     26   1
    31      8     27   1
    32      9     28   1
    33     10     29   1
    34     11     30   1
    35     12     31   1
    36     16     32   1
    37     17     33   1
    38     34     35   2
    39     35     36   1
    40     36     37   2
    41     37     38   1
    42     38     39   2
    43     39     34   1
    44     37     40   1
    45     40     41   1
    46     41     42   2
    47     42     38   1
    48     35     43   1
    49     36     44   1
    50     39     45   1
    51     40     46   1
    52     41     47   1
    53     42     48   1
    54     18     34   1
