# Produced with molli package
@<TRIPOS>MOLECULE
H_8_S
49 54 0 0 0
SMALL
USER_CHARGES

@<TRIPOS>ATOM
     1 N      -3.989750     0.657985     0.391409 N          1 UNL1 0.000
     2 C      -4.676091    -0.618059     0.358810 C          1 UNL1 0.000
     3 C      -4.681367     1.930416     0.445858 C          1 UNL1 0.000
     4 C      -6.082488     2.034410     0.479716 C          1 UNL1 0.000
     5 C      -6.705599     3.298201     0.532871 C          1 UNL1 0.000
     6 C      -5.960148     4.472524     0.556714 C          1 UNL1 0.000
     7 C      -4.578450     4.396366     0.527917 C          1 UNL1 0.000
     8 C      -3.952303     3.147008     0.473476 C          1 UNL1 0.000
     9 C      -3.942262    -1.830592     0.299405 C          1 UNL1 0.000
    10 C      -4.563505    -3.083263     0.269512 C          1 UNL1 0.000
    11 C      -5.944836    -3.166875     0.296200 C          1 UNL1 0.000
    12 C      -6.694947    -1.996731     0.353936 C          1 UNL1 0.000
    13 C      -6.076831    -0.729802     0.386696 C          1 UNL1 0.000
    14 S      -7.185224     0.649071     0.463229 S          1 UNL1 0.000
    15 C      -2.556497     0.664427     0.297913 C          1 UNL1 0.000
    16 C      -1.769034     0.603997     1.475727 C          1 UNL1 0.000
    17 C      -0.355135     0.604736     1.474515 C          1 UNL1 0.000
    18 C       0.421344     0.672148     0.296474 C          1 UNL1 0.000
    19 C      -0.309084     0.737166    -0.926934 C          1 UNL1 0.000
    20 C      -1.822687     0.730534    -0.926717 C          1 UNL1 0.000
    21 N       0.207157     0.806377    -2.167306 N          1 UNL1 0.000
    22 S      -1.071040     0.845595    -3.220740 S          1 UNL1 0.000
    23 N      -2.343895     0.791946    -2.164489 N          1 UNL1 0.000
    24 H      -7.791698     3.372619     0.554721 H          1 UNL1 0.000
    25 H      -6.458879     5.436954     0.595754 H          1 UNL1 0.000
    26 H      -3.980256     5.303752     0.544270 H          1 UNL1 0.000
    27 H      -2.866453     3.153712     0.450369 H          1 UNL1 0.000
    28 H      -2.856441    -1.831524     0.271251 H          1 UNL1 0.000
    29 H      -3.961694    -3.987225     0.221771 H          1 UNL1 0.000
    30 H      -6.439582    -4.133801     0.269746 H          1 UNL1 0.000
    31 H      -7.780707    -2.076915     0.371614 H          1 UNL1 0.000
    32 H      -2.284550     0.553299     2.436542 H          1 UNL1 0.000
    33 H       0.156558     0.554393     2.437486 H          1 UNL1 0.000
    34 C       1.880509     0.666652     0.314782 C          1 UNL1 0.000
    35 C       2.587563    -0.530171     0.493845 C          1 UNL1 0.000
    36 C       3.985440    -0.536318     0.525943 C          1 UNL1 0.000
    37 C       4.704735     0.657168     0.388315 C          1 UNL1 0.000
    38 C       4.008904     1.854920     0.196848 C          1 UNL1 0.000
    39 C       2.608535     1.856378     0.163129 C          1 UNL1 0.000
    40 C       6.195153     0.595494     0.447552 C          1 UNL1 0.000
    41 C       6.984610     1.873432     0.564248 C          1 UNL1 0.000
    42 O       6.762947    -0.493849     0.391599 O          1 UNL1 0.000
    43 H       2.054338    -1.473188     0.599239 H          1 UNL1 0.000
    44 H       4.510417    -1.480993     0.658739 H          1 UNL1 0.000
    45 H       4.526449     2.799554     0.058983 H          1 UNL1 0.000
    46 H       2.084635     2.798641     0.010167 H          1 UNL1 0.000
    47 H       7.947342     1.651436     1.035823 H          1 UNL1 0.000
    48 H       6.478824     2.600281     1.204161 H          1 UNL1 0.000
    49 H       7.159258     2.291676    -0.429849 H          1 UNL1 0.000
@<TRIPOS>BOND
     1      1      2   1
     2      1      3   1
     3      3      4   2
     4      4      5   1
     5      5      6   2
     6      6      7   1
     7      7      8   2
     8      8      3   1
     9      2      9   2
    10      9     10   1
    11     10     11   2
    12     11     12   1
    13     12     13   2
    14     13      2   1
    15      4     14   1
    16     14     13   1
    17     15     16   2
    18     16     17   1
    19     17     18   2
    20     18     19   1
    21     19     20   1
    22     20     15   1
    23     19     21   2
    24     21     22   1
    25     22     23   1
    26     23     20   2
    27      1     15   1
    28      5     24   1
    29      6     25   1
    30      7     26   1
    31      8     27   1
    32      9     28   1
    33     10     29   1
    34     11     30   1
    35     12     31   1
    36     16     32   1
    37     17     33   1
    38     34     35   2
    39     35     36   1
    40     36     37   2
    41     37     38   1
    42     38     39   2
    43     39     34   1
    44     37     40   1
    45     40     41   1
    46     40     42   2
    47     35     43   1
    48     36     44   1
    49     38     45   1
    50     39     46   1
    51     41     47   1
    52     41     48   1
    53     41     49   1
    54     18     34   1
