# Produced with molli package
@<TRIPOS>MOLECULE
H_9_M
44 48 0 0 0
SMALL
USER_CHARGES

@<TRIPOS>ATOM
     1 N      -3.169878     0.516941     1.741526 N          1 UNL1 0.000
     2 C      -3.859695    -0.758810     1.745815 C          1 UNL1 0.000
     3 C      -3.859941     1.791483     1.737092 C          1 UNL1 0.000
     4 C      -5.261245     1.898549     1.718810 C          1 UNL1 0.000
     5 C      -5.882354     3.164329     1.716339 C          1 UNL1 0.000
     6 C      -5.134475     4.337358     1.731008 C          1 UNL1 0.000
     7 C      -3.752495     4.257818     1.750602 C          1 UNL1 0.000
     8 C      -3.128364     3.006284     1.755203 C          1 UNL1 0.000
     9 C      -3.127302    -1.973590     1.767797 C          1 UNL1 0.000
    10 C      -3.749519    -3.225820     1.769021 C          1 UNL1 0.000
    11 C      -5.131036    -3.306715     1.744541 C          1 UNL1 0.000
    12 C      -5.879911    -2.134261     1.722578 C          1 UNL1 0.000
    13 C      -5.260481    -0.867442     1.724839 C          1 UNL1 0.000
    14 S      -6.366486     0.515033     1.694779 S          1 UNL1 0.000
    15 C      -1.730570     0.514445     1.733044 C          1 UNL1 0.000
    16 C      -1.018336     0.450600     2.939685 C          1 UNL1 0.000
    17 C       0.374158     0.416175     2.928401 C          1 UNL1 0.000
    18 C       1.062010     0.445094     1.713221 C          1 UNL1 0.000
    19 C       0.371775     0.514683     0.492058 C          1 UNL1 0.000
    20 C      -1.030041     0.553175     0.515073 C          1 UNL1 0.000
    21 H      -6.968427     3.241395     1.702605 H          1 UNL1 0.000
    22 H      -5.631552     5.303470     1.728080 H          1 UNL1 0.000
    23 H      -3.152267     5.163898     1.763810 H          1 UNL1 0.000
    24 H      -2.041494     3.005517     1.775992 H          1 UNL1 0.000
    25 H      -2.040421    -1.973290     1.784774 H          1 UNL1 0.000
    26 H      -3.147746    -4.130772     1.787806 H          1 UNL1 0.000
    27 H      -5.626752    -4.273480     1.741849 H          1 UNL1 0.000
    28 H      -6.965734    -2.212812     1.702399 H          1 UNL1 0.000
    29 H      -1.555945     0.418912     3.884208 H          1 UNL1 0.000
    30 H       0.924714     0.361398     3.863981 H          1 UNL1 0.000
    31 H       2.150355     0.414883     1.721013 H          1 UNL1 0.000
    32 H      -1.591270     0.596829    -0.416351 H          1 UNL1 0.000
    33 C       1.106295     0.528117    -0.776045 C          1 UNL1 0.000
    34 C       1.244947     1.710983    -1.517597 C          1 UNL1 0.000
    35 C       1.969852     1.724201    -2.714293 C          1 UNL1 0.000
    36 C       2.562004     0.550173    -3.189008 C          1 UNL1 0.000
    37 C       2.422384    -0.636355    -2.464201 C          1 UNL1 0.000
    38 C       1.701040    -0.644807    -1.266504 C          1 UNL1 0.000
    39 C       3.313794     0.562680    -4.409822 C          1 UNL1 0.000
    40 N       3.926440     0.571000    -5.395360 N          1 UNL1 0.000
    41 H       0.796014     2.635382    -1.157803 H          1 UNL1 0.000
    42 H       2.070750     2.656641    -3.266789 H          1 UNL1 0.000
    43 H       2.873631    -1.560112    -2.821579 H          1 UNL1 0.000
    44 H       1.601195    -1.577176    -0.712997 H          1 UNL1 0.000
@<TRIPOS>BOND
     1      1      2   1
     2      1      3   1
     3      3      4   2
     4      4      5   1
     5      5      6   2
     6      6      7   1
     7      7      8   2
     8      8      3   1
     9      2      9   2
    10      9     10   1
    11     10     11   2
    12     11     12   1
    13     12     13   2
    14     13      2   1
    15      4     14   1
    16     14     13   1
    17     15     16   2
    18     16     17   1
    19     17     18   2
    20     18     19   1
    21     19     20   2
    22     20     15   1
    23      1     15   1
    24      5     21   1
    25      6     22   1
    26      7     23   1
    27      8     24   1
    28      9     25   1
    29     10     26   1
    30     11     27   1
    31     12     28   1
    32     16     29   1
    33     17     30   1
    34     18     31   1
    35     20     32   1
    36     33     34   2
    37     34     35   1
    38     35     36   2
    39     36     37   1
    40     37     38   2
    41     38     33   1
    42     39     40   3
    43     36     39   1
    44     34     41   1
    45     35     42   1
    46     37     43   1
    47     38     44   1
    48     19     33   1
