# Produced with molli package
@<TRIPOS>MOLECULE
H_9_O
42 46 0 0 0
SMALL
USER_CHARGES

@<TRIPOS>ATOM
     1 N      -3.225379     0.598486     1.680645 N          1 UNL1 0.000
     2 C      -3.911214    -0.678835     1.695778 C          1 UNL1 0.000
     3 C      -3.918182     1.871088     1.673589 C          1 UNL1 0.000
     4 C      -5.319255     1.975169     1.710966 C          1 UNL1 0.000
     5 C      -5.943046     3.239678     1.708474 C          1 UNL1 0.000
     6 C      -5.197934     4.414001     1.667421 C          1 UNL1 0.000
     7 C      -3.816297     4.336946     1.626817 C          1 UNL1 0.000
     8 C      -3.189596     3.086881     1.629697 C          1 UNL1 0.000
     9 C      -3.175149    -1.891484     1.674654 C          1 UNL1 0.000
    10 C      -3.793127    -3.145653     1.689083 C          1 UNL1 0.000
    11 C      -5.174163    -3.230494     1.725054 C          1 UNL1 0.000
    12 C      -5.926554    -2.060078     1.745697 C          1 UNL1 0.000
    13 C      -5.311207    -0.791274     1.731720 C          1 UNL1 0.000
    14 S      -6.420413     0.588799     1.769551 S          1 UNL1 0.000
    15 C      -1.786473     0.600399     1.693484 C          1 UNL1 0.000
    16 C      -1.093838     0.583773     2.912724 C          1 UNL1 0.000
    17 C       0.298876     0.556056     2.926149 C          1 UNL1 0.000
    18 C       1.006799     0.536491     1.721635 C          1 UNL1 0.000
    19 C       0.336640     0.555273     0.486666 C          1 UNL1 0.000
    20 C      -1.066081     0.598122     0.487606 C          1 UNL1 0.000
    21 H      -7.028747     3.314763     1.738927 H          1 UNL1 0.000
    22 H      -5.696251     5.379315     1.665534 H          1 UNL1 0.000
    23 H      -3.216808     5.242918     1.590791 H          1 UNL1 0.000
    24 H      -2.102675     3.088334     1.592106 H          1 UNL1 0.000
    25 H      -2.088591    -1.886806     1.644216 H          1 UNL1 0.000
    26 H      -3.188424    -4.048594     1.672044 H          1 UNL1 0.000
    27 H      -5.666816    -4.198688     1.736647 H          1 UNL1 0.000
    28 H      -7.011901    -2.141613     1.774219 H          1 UNL1 0.000
    29 H      -1.647345     0.592244     3.848494 H          1 UNL1 0.000
    30 H       0.833489     0.550988     3.872305 H          1 UNL1 0.000
    31 H       2.095011     0.523270     1.748316 H          1 UNL1 0.000
    32 H      -1.606677     0.621128    -0.456857 H          1 UNL1 0.000
    33 C       1.079170     0.522434    -0.775843 C          1 UNL1 0.000
    34 N       0.992874     1.637253    -1.540403 N          1 UNL1 0.000
    35 C       1.673286     1.642447    -2.708425 C          1 UNL1 0.000
    36 C       2.432336     0.577513    -3.163627 C          1 UNL1 0.000
    37 C       2.502434    -0.562904    -2.374934 C          1 UNL1 0.000
    38 C       1.820875    -0.593623    -1.160495 C          1 UNL1 0.000
    39 H       1.588428     2.557249    -3.287134 H          1 UNL1 0.000
    40 H       2.954212     0.636274    -4.112474 H          1 UNL1 0.000
    41 H       3.080016    -1.423275    -2.700569 H          1 UNL1 0.000
    42 H       1.857606    -1.477750    -0.533408 H          1 UNL1 0.000
@<TRIPOS>BOND
     1      1      2   1
     2      1      3   1
     3      3      4   2
     4      4      5   1
     5      5      6   2
     6      6      7   1
     7      7      8   2
     8      8      3   1
     9      2      9   2
    10      9     10   1
    11     10     11   2
    12     11     12   1
    13     12     13   2
    14     13      2   1
    15      4     14   1
    16     14     13   1
    17     15     16   2
    18     16     17   1
    19     17     18   2
    20     18     19   1
    21     19     20   2
    22     20     15   1
    23      1     15   1
    24      5     21   1
    25      6     22   1
    26      7     23   1
    27      8     24   1
    28      9     25   1
    29     10     26   1
    30     11     27   1
    31     12     28   1
    32     16     29   1
    33     17     30   1
    34     18     31   1
    35     20     32   1
    36     33     34   2
    37     34     35   1
    38     35     36   2
    39     36     37   1
    40     37     38   2
    41     38     33   1
    42     35     39   1
    43     36     40   1
    44     37     41   1
    45     38     42   1
    46     19     33   1
