# Produced with molli package
@<TRIPOS>MOLECULE
H_9_Q
41 45 0 0 0
SMALL
USER_CHARGES

@<TRIPOS>ATOM
     1 N      -3.248295     0.541261     1.754601 N          1 UNL1 0.000
     2 C      -3.947347    -0.728366     1.802091 C          1 UNL1 0.000
     3 C      -3.928250     1.821148     1.744983 C          1 UNL1 0.000
     4 C      -5.328609     1.939458     1.762002 C          1 UNL1 0.000
     5 C      -5.939360     3.210311     1.763707 C          1 UNL1 0.000
     6 C      -5.181868     4.377228     1.747412 C          1 UNL1 0.000
     7 C      -3.800687     4.286333     1.725399 C          1 UNL1 0.000
     8 C      -3.186875     3.029876     1.723072 C          1 UNL1 0.000
     9 C      -3.223711    -1.948243     1.831876 C          1 UNL1 0.000
    10 C      -3.854812    -3.194795     1.887576 C          1 UNL1 0.000
    11 C      -5.236959    -3.264684     1.911580 C          1 UNL1 0.000
    12 C      -5.977459    -2.087150     1.877254 C          1 UNL1 0.000
    13 C      -5.348922    -0.825961     1.822510 C          1 UNL1 0.000
    14 S      -6.444829     0.564410     1.781476 S          1 UNL1 0.000
    15 C      -1.809366     0.529195     1.759865 C          1 UNL1 0.000
    16 C      -1.110416     0.508729     2.975788 C          1 UNL1 0.000
    17 C       0.281878     0.473051     2.982182 C          1 UNL1 0.000
    18 C       0.983697     0.450402     1.774648 C          1 UNL1 0.000
    19 C       0.307475     0.472806     0.542263 C          1 UNL1 0.000
    20 C      -1.095339     0.522364     0.550198 C          1 UNL1 0.000
    21 H      -7.024634     3.296320     1.778287 H          1 UNL1 0.000
    22 H      -5.670398     5.347566     1.750095 H          1 UNL1 0.000
    23 H      -3.191863     5.186644     1.709375 H          1 UNL1 0.000
    24 H      -2.099667     3.021048     1.703247 H          1 UNL1 0.000
    25 H      -2.137029    -1.956109     1.813938 H          1 UNL1 0.000
    26 H      -3.259625    -4.103953     1.912168 H          1 UNL1 0.000
    27 H      -5.739645    -4.226845     1.955295 H          1 UNL1 0.000
    28 H      -7.063909    -2.157073     1.893929 H          1 UNL1 0.000
    29 H      -1.659181     0.521626     3.914374 H          1 UNL1 0.000
    30 H       0.820796     0.465741     3.926171 H          1 UNL1 0.000
    31 H       2.072261     0.433842     1.799336 H          1 UNL1 0.000
    32 H      -1.642810     0.549597    -0.390588 H          1 UNL1 0.000
    33 C       1.046048     0.441942    -0.719271 C          1 UNL1 0.000
    34 N       0.985376     1.561627    -1.484210 N          1 UNL1 0.000
    35 C       1.693474     1.526445    -2.637138 C          1 UNL1 0.000
    36 C       2.428374     0.419889    -3.028081 C          1 UNL1 0.000
    37 N       2.491832    -0.705724    -2.283511 N          1 UNL1 0.000
    38 C       1.786539    -0.667006    -1.125593 C          1 UNL1 0.000
    39 H       1.656325     2.424038    -3.243954 H          1 UNL1 0.000
    40 H       2.989055     0.409973    -3.955707 H          1 UNL1 0.000
    41 H       1.827910    -1.570319    -0.525875 H          1 UNL1 0.000
@<TRIPOS>BOND
     1      1      2   1
     2      1      3   1
     3      3      4   2
     4      4      5   1
     5      5      6   2
     6      6      7   1
     7      7      8   2
     8      8      3   1
     9      2      9   2
    10      9     10   1
    11     10     11   2
    12     11     12   1
    13     12     13   2
    14     13      2   1
    15      4     14   1
    16     14     13   1
    17     15     16   2
    18     16     17   1
    19     17     18   2
    20     18     19   1
    21     19     20   2
    22     20     15   1
    23      1     15   1
    24      5     21   1
    25      6     22   1
    26      7     23   1
    27      8     24   1
    28      9     25   1
    29     10     26   1
    30     11     27   1
    31     12     28   1
    32     16     29   1
    33     17     30   1
    34     18     31   1
    35     20     32   1
    36     33     34   2
    37     34     35   1
    38     35     36   2
    39     36     37   1
    40     37     38   2
    41     38     33   1
    42     35     39   1
    43     36     40   1
    44     38     41   1
    45     19     33   1
