# Produced with molli package
@<TRIPOS>MOLECULE
H_9_P
47 51 0 0 0
SMALL
USER_CHARGES

@<TRIPOS>ATOM
     1 N      -3.220455     0.525516     1.771626 N          1 UNL1 0.000
     2 C      -3.907108    -0.751387     1.787917 C          1 UNL1 0.000
     3 C      -3.912807     1.798712     1.802275 C          1 UNL1 0.000
     4 C      -5.313526     1.903352     1.835372 C          1 UNL1 0.000
     5 C      -5.935657     3.168141     1.877327 C          1 UNL1 0.000
     6 C      -5.188774     4.342209     1.884170 C          1 UNL1 0.000
     7 C      -3.807509     4.265109     1.844180 C          1 UNL1 0.000
     8 C      -3.182557     3.014818     1.802020 C          1 UNL1 0.000
     9 C      -3.171543    -1.964331     1.782642 C          1 UNL1 0.000
    10 C      -3.791306    -3.217829     1.805660 C          1 UNL1 0.000
    11 C      -5.172474    -3.301534     1.833433 C          1 UNL1 0.000
    12 C      -5.924387    -2.130692     1.836770 C          1 UNL1 0.000
    13 C      -5.307521    -0.862719     1.814503 C          1 UNL1 0.000
    14 S      -6.416768     0.517936     1.825059 S          1 UNL1 0.000
    15 C      -1.781439     0.528795     1.769415 C          1 UNL1 0.000
    16 C      -1.076076     0.557632     2.981742 C          1 UNL1 0.000
    17 C       0.316781     0.555212     2.981478 C          1 UNL1 0.000
    18 C       1.012763     0.519961     1.771029 C          1 UNL1 0.000
    19 C       0.328748     0.489929     0.545294 C          1 UNL1 0.000
    20 C      -1.073509     0.498183     0.556113 C          1 UNL1 0.000
    21 H      -7.021343     3.243582     1.905370 H          1 UNL1 0.000
    22 H      -5.686450     5.307430     1.918434 H          1 UNL1 0.000
    23 H      -3.207445     5.171440     1.845989 H          1 UNL1 0.000
    24 H      -2.096056     3.016079     1.769817 H          1 UNL1 0.000
    25 H      -2.084771    -1.960905     1.762071 H          1 UNL1 0.000
    26 H      -3.187230    -4.121529     1.802174 H          1 UNL1 0.000
    27 H      -5.666024    -4.269316     1.852185 H          1 UNL1 0.000
    28 H      -7.009859    -2.211272     1.858062 H          1 UNL1 0.000
    29 H      -1.620256     0.580714     3.922817 H          1 UNL1 0.000
    30 H       0.861102     0.578170     3.921802 H          1 UNL1 0.000
    31 H       2.101251     0.515815     1.784837 H          1 UNL1 0.000
    32 H      -1.626410     0.471949    -0.380902 H          1 UNL1 0.000
    33 C       1.069625     0.438311    -0.717157 C          1 UNL1 0.000
    34 C       1.316836     1.606604    -1.454733 C          1 UNL1 0.000
    35 C       2.038828     1.556148    -2.650894 C          1 UNL1 0.000
    36 C       2.526133     0.334884    -3.110970 C          1 UNL1 0.000
    37 C       2.262028    -0.838544    -2.411304 C          1 UNL1 0.000
    38 C       1.546514    -0.785089    -1.213041 C          1 UNL1 0.000
    39 O       3.211579     0.233023    -4.290529 O          1 UNL1 0.000
    40 C       4.486073     0.868932    -4.198707 C          1 UNL1 0.000
    41 H       0.942915     2.564551    -1.099401 H          1 UNL1 0.000
    42 H       2.201987     2.465882    -3.220339 H          1 UNL1 0.000
    43 H       2.617251    -1.791217    -2.792887 H          1 UNL1 0.000
    44 H       1.355280    -1.706682    -0.667548 H          1 UNL1 0.000
    45 H       5.053572     0.610478    -5.097875 H          1 UNL1 0.000
    46 H       5.049113     0.509219    -3.329713 H          1 UNL1 0.000
    47 H       4.384832     1.958444    -4.166101 H          1 UNL1 0.000
@<TRIPOS>BOND
     1      1      2   1
     2      1      3   1
     3      3      4   2
     4      4      5   1
     5      5      6   2
     6      6      7   1
     7      7      8   2
     8      8      3   1
     9      2      9   2
    10      9     10   1
    11     10     11   2
    12     11     12   1
    13     12     13   2
    14     13      2   1
    15      4     14   1
    16     14     13   1
    17     15     16   2
    18     16     17   1
    19     17     18   2
    20     18     19   1
    21     19     20   2
    22     20     15   1
    23      1     15   1
    24      5     21   1
    25      6     22   1
    26      7     23   1
    27      8     24   1
    28      9     25   1
    29     10     26   1
    30     11     27   1
    31     12     28   1
    32     16     29   1
    33     17     30   1
    34     18     31   1
    35     20     32   1
    36     33     34   2
    37     34     35   1
    38     35     36   2
    39     36     37   1
    40     37     38   2
    41     38     33   1
    42     39     40   1
    43     36     39   1
    44     34     41   1
    45     35     42   1
    46     37     43   1
    47     38     44   1
    48     40     45   1
    49     40     46   1
    50     40     47   1
    51     19     33   1
