# Produced with molli package
@<TRIPOS>MOLECULE
H_9_R
44 48 0 0 0
SMALL
USER_CHARGES

@<TRIPOS>ATOM
     1 N      -3.122603     0.545777     1.618839 N          1 UNL1 0.000
     2 C      -3.797920    -0.737122     1.617721 C          1 UNL1 0.000
     3 C      -3.826614     1.812739     1.648813 C          1 UNL1 0.000
     4 C      -5.227564     1.904155     1.713313 C          1 UNL1 0.000
     5 C      -5.861409     3.163056     1.753688 C          1 UNL1 0.000
     6 C      -5.126921     4.344373     1.724786 C          1 UNL1 0.000
     7 C      -3.746054     4.280149     1.650620 C          1 UNL1 0.000
     8 C      -3.109306     3.035693     1.611894 C          1 UNL1 0.000
     9 C      -3.052509    -1.943163     1.571597 C          1 UNL1 0.000
    10 C      -3.660887    -3.202129     1.565259 C          1 UNL1 0.000
    11 C      -5.041023    -3.298530     1.608001 C          1 UNL1 0.000
    12 C      -5.802224    -2.134928     1.659105 C          1 UNL1 0.000
    13 C      -5.196780    -0.861469     1.665227 C          1 UNL1 0.000
    14 S      -6.316371     0.507842     1.751040 S          1 UNL1 0.000
    15 C      -1.683679     0.561660     1.634332 C          1 UNL1 0.000
    16 C      -0.994881     0.617707     2.854993 C          1 UNL1 0.000
    17 C       0.398028     0.629256     2.873406 C          1 UNL1 0.000
    18 C       1.110647     0.576508     1.673468 C          1 UNL1 0.000
    19 C       0.443608     0.511315     0.439095 C          1 UNL1 0.000
    20 C      -0.959410     0.513398     0.431604 C          1 UNL1 0.000
    21 H      -6.946897     3.228354     1.808241 H          1 UNL1 0.000
    22 H      -5.633095     5.305171     1.756883 H          1 UNL1 0.000
    23 H      -3.155456     5.192277     1.621491 H          1 UNL1 0.000
    24 H      -2.023779     3.048029     1.547981 H          1 UNL1 0.000
    25 H      -1.966277    -1.929823     1.541453 H          1 UNL1 0.000
    26 H      -3.050060    -4.100388     1.528907 H          1 UNL1 0.000
    27 H      -5.526348    -4.270573     1.605249 H          1 UNL1 0.000
    28 H      -6.886632    -2.225686     1.697425 H          1 UNL1 0.000
    29 H      -1.551650     0.657091     3.788166 H          1 UNL1 0.000
    30 H       0.928760     0.682061     3.820482 H          1 UNL1 0.000
    31 H       2.198816     0.593594     1.701595 H          1 UNL1 0.000
    32 H      -1.499909     0.479324    -0.512348 H          1 UNL1 0.000
    33 C       1.198111     0.430279    -0.810120 C          1 UNL1 0.000
    34 N       1.501215     1.616038    -1.396814 N          1 UNL1 0.000
    35 C       2.212673     1.581122    -2.551238 C          1 UNL1 0.000
    36 C       2.630190     0.401050    -3.143404 C          1 UNL1 0.000
    37 C       2.314968    -0.815363    -2.538277 C          1 UNL1 0.000
    38 C       1.587700    -0.797244    -1.348557 C          1 UNL1 0.000
    39 N       3.387949     0.443878    -4.380550 N          1 UNL1 0.000
    40 O       3.380830    -0.570463    -5.090385 O          1 UNL1 0.000
    41 O       3.996958     1.490152    -4.644186 O          1 UNL1 0.000
    42 H       2.426327     2.556953    -2.980617 H          1 UNL1 0.000
    43 H       2.627031    -1.763433    -2.969174 H          1 UNL1 0.000
    44 H       1.330184    -1.726126    -0.847538 H          1 UNL1 0.000
@<TRIPOS>BOND
     1      1      2   1
     2      1      3   1
     3      3      4   2
     4      4      5   1
     5      5      6   2
     6      6      7   1
     7      7      8   2
     8      8      3   1
     9      2      9   2
    10      9     10   1
    11     10     11   2
    12     11     12   1
    13     12     13   2
    14     13      2   1
    15      4     14   1
    16     14     13   1
    17     15     16   2
    18     16     17   1
    19     17     18   2
    20     18     19   1
    21     19     20   2
    22     20     15   1
    23      1     15   1
    24      5     21   1
    25      6     22   1
    26      7     23   1
    27      8     24   1
    28      9     25   1
    29     10     26   1
    30     11     27   1
    31     12     28   1
    32     16     29   1
    33     17     30   1
    34     18     31   1
    35     20     32   1
    36     33     34   2
    37     34     35   1
    38     35     36   2
    39     36     37   1
    40     37     38   2
    41     38     33   1
    42     39     40   2
    43     39     41   1
    44     36     39   1
    45     35     42   1
    46     37     43   1
    47     38     44   1
    48     19     33   1
