# Produced with molli package
@<TRIPOS>MOLECULE
H_9_T
46 50 0 0 0
SMALL
USER_CHARGES

@<TRIPOS>ATOM
     1 N      -3.137656     0.496474     1.702974 N          1 UNL1 0.000
     2 C      -3.831177    -0.776573     1.711530 C          1 UNL1 0.000
     3 C      -3.823013     1.773431     1.694665 C          1 UNL1 0.000
     4 C      -5.223369     1.885664     1.659537 C          1 UNL1 0.000
     5 C      -5.839247     3.154020     1.654330 C          1 UNL1 0.000
     6 C      -5.087079     4.324181     1.685924 C          1 UNL1 0.000
     7 C      -3.705817     4.239335     1.722384 C          1 UNL1 0.000
     8 C      -3.086991     2.985452     1.726168 C          1 UNL1 0.000
     9 C      -3.102792    -1.993151     1.749570 C          1 UNL1 0.000
    10 C      -3.729397    -3.243042     1.767971 C          1 UNL1 0.000
    11 C      -5.111336    -3.319498     1.745140 C          1 UNL1 0.000
    12 C      -5.856172    -2.145016     1.701363 C          1 UNL1 0.000
    13 C      -5.232275    -0.880556     1.683813 C          1 UNL1 0.000
    14 S      -6.332643     0.505609     1.616486 S          1 UNL1 0.000
    15 C      -1.698652     0.491292     1.705523 C          1 UNL1 0.000
    16 C      -0.994178     0.457763     2.917664 C          1 UNL1 0.000
    17 C       0.398777     0.439106     2.915713 C          1 UNL1 0.000
    18 C       1.094680     0.453893     1.704361 C          1 UNL1 0.000
    19 C       0.412412     0.493466     0.477347 C          1 UNL1 0.000
    20 C      -0.990328     0.513024     0.492475 C          1 UNL1 0.000
    21 H      -6.924632     3.235440     1.625628 H          1 UNL1 0.000
    22 H      -5.580019     5.292311     1.682496 H          1 UNL1 0.000
    23 H      -3.101628     5.142451     1.748861 H          1 UNL1 0.000
    24 H      -2.000237     2.980393     1.757759 H          1 UNL1 0.000
    25 H      -2.015725    -1.995484     1.766572 H          1 UNL1 0.000
    26 H      -3.130444    -4.149486     1.799580 H          1 UNL1 0.000
    27 H      -5.610227    -4.284476     1.758716 H          1 UNL1 0.000
    28 H      -6.942161    -2.220035     1.679605 H          1 UNL1 0.000
    29 H      -1.537893     0.443686     3.858934 H          1 UNL1 0.000
    30 H       0.943843     0.413623     3.855613 H          1 UNL1 0.000
    31 H       2.183283     0.444244     1.719067 H          1 UNL1 0.000
    32 H      -1.544940     0.534134    -0.443771 H          1 UNL1 0.000
    33 C       1.149846     0.513239    -0.790362 C          1 UNL1 0.000
    34 C       1.882422    -0.605272    -1.213454 C          1 UNL1 0.000
    35 C       2.587559    -0.587680    -2.420847 C          1 UNL1 0.000
    36 C       2.576253     0.551967    -3.230827 C          1 UNL1 0.000
    37 C       1.851189     1.673377    -2.813641 C          1 UNL1 0.000
    38 C       1.142747     1.651901    -1.608573 C          1 UNL1 0.000
    39 C       3.337600     0.589644    -4.522466 C          1 UNL1 0.000
    40 H       1.900144    -1.506604    -0.604162 H          1 UNL1 0.000
    41 H       3.142634    -1.473061    -2.722059 H          1 UNL1 0.000
    42 H       1.833479     2.573103    -3.424649 H          1 UNL1 0.000
    43 H       0.589121     2.537946    -1.304575 H          1 UNL1 0.000
    44 H       4.141515     1.330275    -4.463599 H          1 UNL1 0.000
    45 H       2.668169     0.849243    -5.348961 H          1 UNL1 0.000
    46 H       3.788132    -0.381694    -4.751610 H          1 UNL1 0.000
@<TRIPOS>BOND
     1      1      2   1
     2      1      3   1
     3      3      4   2
     4      4      5   1
     5      5      6   2
     6      6      7   1
     7      7      8   2
     8      8      3   1
     9      2      9   2
    10      9     10   1
    11     10     11   2
    12     11     12   1
    13     12     13   2
    14     13      2   1
    15      4     14   1
    16     14     13   1
    17     15     16   2
    18     16     17   1
    19     17     18   2
    20     18     19   1
    21     19     20   2
    22     20     15   1
    23      1     15   1
    24      5     21   1
    25      6     22   1
    26      7     23   1
    27      8     24   1
    28      9     25   1
    29     10     26   1
    30     11     27   1
    31     12     28   1
    32     16     29   1
    33     17     30   1
    34     18     31   1
    35     20     32   1
    36     33     34   2
    37     34     35   1
    38     35     36   2
    39     36     37   1
    40     37     38   2
    41     38     33   1
    42     36     39   1
    43     34     40   1
    44     35     41   1
    45     37     42   1
    46     38     43   1
    47     39     44   1
    48     39     45   1
    49     39     46   1
    50     19     33   1
