# Produced with molli package
@<TRIPOS>MOLECULE
H_9_N
40 44 0 0 0
SMALL
USER_CHARGES

@<TRIPOS>ATOM
     1 N      -3.163769     0.503356     1.770418 N          1 UNL1 0.000
     2 C      -3.809731    -0.794051     1.759151 C          1 UNL1 0.000
     3 C      -3.896119     1.754639     1.790707 C          1 UNL1 0.000
     4 C      -5.299416     1.815160     1.828779 C          1 UNL1 0.000
     5 C      -5.961260     3.060114     1.851447 C          1 UNL1 0.000
     6 C      -5.252673     4.257504     1.833588 C          1 UNL1 0.000
     7 C      -3.869601     4.223880     1.790739 C          1 UNL1 0.000
     8 C      -3.205453     2.993593     1.768892 C          1 UNL1 0.000
     9 C      -3.036823    -1.982824     1.724050 C          1 UNL1 0.000
    10 C      -3.617347    -3.254814     1.704849 C          1 UNL1 0.000
    11 C      -4.995653    -3.381884     1.723624 C          1 UNL1 0.000
    12 C      -5.783312    -2.235654     1.764788 C          1 UNL1 0.000
    13 C      -5.206220    -0.949328     1.784077 C          1 UNL1 0.000
    14 S      -6.357275     0.395080     1.850623 S          1 UNL1 0.000
    15 C      -1.725823     0.553883     1.754923 C          1 UNL1 0.000
    16 C      -1.009399     0.636278     2.958955 C          1 UNL1 0.000
    17 C       0.383235     0.708578     2.944148 C          1 UNL1 0.000
    18 C       1.068980     0.697171     1.727498 C          1 UNL1 0.000
    19 C       0.366037     0.603218     0.520437 C          1 UNL1 0.000
    20 C      -1.031176     0.533928     0.534854 C          1 UNL1 0.000
    21 H      -7.048834     3.101535     1.882582 H          1 UNL1 0.000
    22 H      -5.780666     5.206861     1.850971 H          1 UNL1 0.000
    23 H      -3.298940     5.148812     1.773051 H          1 UNL1 0.000
    24 H      -2.119613     3.030135     1.731347 H          1 UNL1 0.000
    25 H      -1.950481    -1.945370     1.711367 H          1 UNL1 0.000
    26 H      -2.985934    -4.139106     1.675822 H          1 UNL1 0.000
    27 H      -5.459002    -4.364477     1.709008 H          1 UNL1 0.000
    28 H      -6.865911    -2.350432     1.783264 H          1 UNL1 0.000
    29 H      -1.544418     0.649227     3.905723 H          1 UNL1 0.000
    30 H       0.933823     0.774624     3.878866 H          1 UNL1 0.000
    31 H       2.155675     0.751161     1.727946 H          1 UNL1 0.000
    32 H      -1.591523     0.477617    -0.395504 H          1 UNL1 0.000
    33 C       1.087220     0.593650    -0.740965 C          1 UNL1 0.000
    34 C       1.069355    -0.507639    -1.573238 C          1 UNL1 0.000
    35 S       2.001266    -0.267818    -2.989536 S          1 UNL1 0.000
    36 C       2.435880     1.312775    -2.501762 C          1 UNL1 0.000
    37 C       1.888860     1.646687    -1.281791 C          1 UNL1 0.000
    38 H       0.560238    -1.450409    -1.421834 H          1 UNL1 0.000
    39 H       3.070647     1.920431    -3.131693 H          1 UNL1 0.000
    40 H       2.045541     2.606784    -0.805629 H          1 UNL1 0.000
@<TRIPOS>BOND
     1      1      2   1
     2      1      3   1
     3      3      4   2
     4      4      5   1
     5      5      6   2
     6      6      7   1
     7      7      8   2
     8      8      3   1
     9      2      9   2
    10      9     10   1
    11     10     11   2
    12     11     12   1
    13     12     13   2
    14     13      2   1
    15      4     14   1
    16     14     13   1
    17     15     16   2
    18     16     17   1
    19     17     18   2
    20     18     19   1
    21     19     20   2
    22     20     15   1
    23      1     15   1
    24      5     21   1
    25      6     22   1
    26      7     23   1
    27      8     24   1
    28      9     25   1
    29     10     26   1
    30     11     27   1
    31     12     28   1
    32     16     29   1
    33     17     30   1
    34     18     31   1
    35     20     32   1
    36     33     34   2
    37     34     35   1
    38     35     36   1
    39     36     37   2
    40     37     33   1
    41     34     38   1
    42     36     39   1
    43     37     40   1
    44     19     33   1
