# Produced with molli package
@<TRIPOS>MOLECULE
H_9_L
47 52 0 0 0
SMALL
USER_CHARGES

@<TRIPOS>ATOM
     1 N      -3.140564     0.431721     1.768332 N          1 UNL1 0.000
     2 C      -3.813993    -0.852260     1.773787 C          1 UNL1 0.000
     3 C      -3.845553     1.697498     1.801900 C          1 UNL1 0.000
     4 C      -5.247841     1.787659     1.823092 C          1 UNL1 0.000
     5 C      -5.883248     3.045747     1.863666 C          1 UNL1 0.000
     6 C      -5.148800     4.227329     1.883138 C          1 UNL1 0.000
     7 C      -3.766098     4.164382     1.859071 C          1 UNL1 0.000
     8 C      -3.127993     2.920768     1.817811 C          1 UNL1 0.000
     9 C      -3.066034    -2.057527     1.762738 C          1 UNL1 0.000
    10 C      -3.672236    -3.317470     1.777239 C          1 UNL1 0.000
    11 C      -5.052723    -3.415726     1.801011 C          1 UNL1 0.000
    12 C      -5.816670    -2.252759     1.807439 C          1 UNL1 0.000
    13 C      -5.213359    -0.978263     1.793466 C          1 UNL1 0.000
    14 S      -6.336673     0.390920     1.800794 S          1 UNL1 0.000
    15 C      -1.701499     0.447950     1.764166 C          1 UNL1 0.000
    16 C      -0.993798     0.441715     2.975358 C          1 UNL1 0.000
    17 C       0.399224     0.438345     2.971544 C          1 UNL1 0.000
    18 C       1.092404     0.439064     1.759055 C          1 UNL1 0.000
    19 C       0.406299     0.449154     0.533910 C          1 UNL1 0.000
    20 C      -0.996273     0.456660     0.549175 C          1 UNL1 0.000
    21 H      -6.970026     3.109859     1.881121 H          1 UNL1 0.000
    22 H      -5.656588     5.187203     1.916143 H          1 UNL1 0.000
    23 H      -3.175594     5.076775     1.872951 H          1 UNL1 0.000
    24 H      -2.041013     2.932799     1.800140 H          1 UNL1 0.000
    25 H      -1.979091    -2.042813     1.743289 H          1 UNL1 0.000
    26 H      -3.058476    -4.214498     1.769872 H          1 UNL1 0.000
    27 H      -5.535812    -4.388729     1.813100 H          1 UNL1 0.000
    28 H      -6.901412    -2.344877     1.823855 H          1 UNL1 0.000
    29 H      -1.535658     0.434959     3.917821 H          1 UNL1 0.000
    30 H       0.946032     0.432149     3.910693 H          1 UNL1 0.000
    31 H       2.181119     0.435187     1.769930 H          1 UNL1 0.000
    32 H      -1.551242     0.456198    -0.386985 H          1 UNL1 0.000
    33 C       1.143873     0.443106    -0.733045 C          1 UNL1 0.000
    34 C       1.269135     1.615359    -1.491613 C          1 UNL1 0.000
    35 C       1.978641     1.641732    -2.698817 C          1 UNL1 0.000
    36 C       2.560608     0.446293    -3.131773 C          1 UNL1 0.000
    37 C       2.457371    -0.743686    -2.413014 C          1 UNL1 0.000
    38 C       1.742116    -0.742652    -1.199050 C          1 UNL1 0.000
    39 N       3.303002     0.174741    -4.259156 N          1 UNL1 0.000
    40 C       3.667777    -1.145532    -4.279299 C          1 UNL1 0.000
    41 C       3.157202    -1.740068    -3.148029 C          1 UNL1 0.000
    42 H       0.811432     2.537288    -1.135926 H          1 UNL1 0.000
    43 H       2.069145     2.559584    -3.270140 H          1 UNL1 0.000
    44 H       1.651091    -1.663104    -0.628484 H          1 UNL1 0.000
    45 H       3.539388     0.856043    -4.967070 H          1 UNL1 0.000
    46 H       4.255933    -1.546487    -5.093654 H          1 UNL1 0.000
    47 H       3.272506    -2.780742    -2.875195 H          1 UNL1 0.000
@<TRIPOS>BOND
     1      1      2   1
     2      1      3   1
     3      3      4   2
     4      4      5   1
     5      5      6   2
     6      6      7   1
     7      7      8   2
     8      8      3   1
     9      2      9   2
    10      9     10   1
    11     10     11   2
    12     11     12   1
    13     12     13   2
    14     13      2   1
    15      4     14   1
    16     14     13   1
    17     15     16   2
    18     16     17   1
    19     17     18   2
    20     18     19   1
    21     19     20   2
    22     20     15   1
    23      1     15   1
    24      5     21   1
    25      6     22   1
    26      7     23   1
    27      8     24   1
    28      9     25   1
    29     10     26   1
    30     11     27   1
    31     12     28   1
    32     16     29   1
    33     17     30   1
    34     18     31   1
    35     20     32   1
    36     33     34   2
    37     34     35   1
    38     35     36   2
    39     36     37   1
    40     37     38   2
    41     38     33   1
    42     36     39   1
    43     39     40   1
    44     40     41   2
    45     41     37   1
    46     34     42   1
    47     35     43   1
    48     38     44   1
    49     39     45   1
    50     40     46   1
    51     41     47   1
    52     19     33   1
