# Produced with molli package
@<TRIPOS>MOLECULE
H_9_S
48 52 0 0 0
SMALL
USER_CHARGES

@<TRIPOS>ATOM
     1 N      -3.210974     0.659123     1.555251 N          1 UNL1 0.000
     2 C      -3.917100    -0.605215     1.627511 C          1 UNL1 0.000
     3 C      -3.885325     1.942368     1.528810 C          1 UNL1 0.000
     4 C      -5.284896     2.066685     1.500899 C          1 UNL1 0.000
     5 C      -5.889972     3.340121     1.485480 C          1 UNL1 0.000
     6 C      -5.127526     4.503876     1.499174 C          1 UNL1 0.000
     7 C      -3.746840     4.407335     1.524754 C          1 UNL1 0.000
     8 C      -3.138703     3.148249     1.537444 C          1 UNL1 0.000
     9 C      -3.201086    -1.826082     1.718732 C          1 UNL1 0.000
    10 C      -3.840952    -3.066233     1.810757 C          1 UNL1 0.000
    11 C      -5.223885    -3.128534     1.808725 C          1 UNL1 0.000
    12 C      -5.956800    -1.950196     1.708413 C          1 UNL1 0.000
    13 C      -5.319603    -0.695705     1.616323 C          1 UNL1 0.000
    14 S      -6.405954     0.695977     1.476793 S          1 UNL1 0.000
    15 C      -1.771692     0.642850     1.569772 C          1 UNL1 0.000
    16 C      -1.080584     0.646827     2.790704 C          1 UNL1 0.000
    17 C       0.311795     0.631337     2.806345 C          1 UNL1 0.000
    18 C       1.021246     0.611172     1.603669 C          1 UNL1 0.000
    19 C       0.353324     0.610220     0.367789 C          1 UNL1 0.000
    20 C      -1.049760     0.627131     0.363973 C          1 UNL1 0.000
    21 H      -6.974798     3.430782     1.463453 H          1 UNL1 0.000
    22 H      -5.612083     5.476242     1.489591 H          1 UNL1 0.000
    23 H      -3.134856     5.305560     1.536516 H          1 UNL1 0.000
    24 H      -2.051924     3.134871     1.560081 H          1 UNL1 0.000
    25 H      -2.114143    -1.839230     1.724262 H          1 UNL1 0.000
    26 H      -3.251876    -3.976657     1.884946 H          1 UNL1 0.000
    27 H      -5.733047    -4.085550     1.881451 H          1 UNL1 0.000
    28 H      -7.043765    -2.014086     1.701966 H          1 UNL1 0.000
    29 H      -1.635348     0.664032     3.725645 H          1 UNL1 0.000
    30 H       0.845380     0.638800     3.753146 H          1 UNL1 0.000
    31 H       2.109644     0.607784     1.632545 H          1 UNL1 0.000
    32 H      -1.593921     0.623690    -0.578518 H          1 UNL1 0.000
    33 C       1.114168     0.598910    -0.885437 C          1 UNL1 0.000
    34 C       1.200964     1.746136    -1.683607 C          1 UNL1 0.000
    35 C       1.955616     1.741214    -2.861758 C          1 UNL1 0.000
    36 C       2.636324     0.586504    -3.274434 C          1 UNL1 0.000
    37 C       2.553730    -0.562254    -2.481816 C          1 UNL1 0.000
    38 C       1.797355    -0.553205    -1.301372 C          1 UNL1 0.000
    39 C       3.429667     0.660926    -4.540422 C          1 UNL1 0.000
    40 C       4.020535    -0.578306    -5.163128 C          1 UNL1 0.000
    41 O       3.599209     1.756292    -5.079219 O          1 UNL1 0.000
    42 H       0.692364     2.661114    -1.385088 H          1 UNL1 0.000
    43 H       2.012450     2.652987    -3.454944 H          1 UNL1 0.000
    44 H       3.072200    -1.479880    -2.736850 H          1 UNL1 0.000
    45 H       1.744910    -1.459445    -0.699632 H          1 UNL1 0.000
    46 H       3.692519    -0.631439    -6.205869 H          1 UNL1 0.000
    47 H       3.712966    -1.505856    -4.684035 H          1 UNL1 0.000
    48 H       5.111246    -0.507874    -5.126674 H          1 UNL1 0.000
@<TRIPOS>BOND
     1      1      2   1
     2      1      3   1
     3      3      4   2
     4      4      5   1
     5      5      6   2
     6      6      7   1
     7      7      8   2
     8      8      3   1
     9      2      9   2
    10      9     10   1
    11     10     11   2
    12     11     12   1
    13     12     13   2
    14     13      2   1
    15      4     14   1
    16     14     13   1
    17     15     16   2
    18     16     17   1
    19     17     18   2
    20     18     19   1
    21     19     20   2
    22     20     15   1
    23      1     15   1
    24      5     21   1
    25      6     22   1
    26      7     23   1
    27      8     24   1
    28      9     25   1
    29     10     26   1
    30     11     27   1
    31     12     28   1
    32     16     29   1
    33     17     30   1
    34     18     31   1
    35     20     32   1
    36     33     34   2
    37     34     35   1
    38     35     36   2
    39     36     37   1
    40     37     38   2
    41     38     33   1
    42     36     39   1
    43     39     40   1
    44     39     41   2
    45     34     42   1
    46     35     43   1
    47     37     44   1
    48     38     45   1
    49     40     46   1
    50     40     47   1
    51     40     48   1
    52     19     33   1
