# Produced with molli package
@<TRIPOS>MOLECULE
H_9_K
45 49 0 0 0
SMALL
USER_CHARGES

@<TRIPOS>ATOM
     1 N      -3.228111     0.532771     1.766596 N          1 UNL1 0.000
     2 C      -3.897233    -0.753110     1.744388 C          1 UNL1 0.000
     3 C      -3.937548     1.795669     1.822364 C          1 UNL1 0.000
     4 C      -5.340104     1.881067     1.837702 C          1 UNL1 0.000
     5 C      -5.979547     3.136317     1.897244 C          1 UNL1 0.000
     6 C      -5.248973     4.319657     1.941842 C          1 UNL1 0.000
     7 C      -3.866037     4.261495     1.925676 C          1 UNL1 0.000
     8 C      -3.223934     3.020780     1.866294 C          1 UNL1 0.000
     9 C      -3.145313    -1.955546     1.715038 C          1 UNL1 0.000
    10 C      -3.747927    -3.217249     1.696991 C          1 UNL1 0.000
    11 C      -5.128332    -3.319934     1.706392 C          1 UNL1 0.000
    12 C      -5.895899    -2.159709     1.733134 C          1 UNL1 0.000
    13 C      -5.296402    -0.883600     1.752225 C          1 UNL1 0.000
    14 S      -6.424002     0.481657     1.782181 S          1 UNL1 0.000
    15 C      -1.789679     0.556266     1.743618 C          1 UNL1 0.000
    16 C      -1.063989     0.533640     2.943590 C          1 UNL1 0.000
    17 C       0.328851     0.553898     2.918922 C          1 UNL1 0.000
    18 C       1.003994     0.595917     1.696861 C          1 UNL1 0.000
    19 C       0.298681     0.620847     0.483274 C          1 UNL1 0.000
    20 C      -1.102989     0.601308     0.518892 C          1 UNL1 0.000
    21 H      -7.066642     3.197036     1.909431 H          1 UNL1 0.000
    22 H      -5.760051     5.277287     1.988546 H          1 UNL1 0.000
    23 H      -3.278846     5.175532     1.960031 H          1 UNL1 0.000
    24 H      -2.137053     3.037222     1.857596 H          1 UNL1 0.000
    25 H      -2.058452    -1.937229     1.707557 H          1 UNL1 0.000
    26 H      -3.132149    -4.112710     1.676373 H          1 UNL1 0.000
    27 H      -5.608870    -4.294281     1.692853 H          1 UNL1 0.000
    28 H      -6.980532    -2.255354     1.739286 H          1 UNL1 0.000
    29 H      -1.591428     0.500211     3.893825 H          1 UNL1 0.000
    30 H       0.889179     0.537529     3.850218 H          1 UNL1 0.000
    31 H       2.092546     0.613133     1.694017 H          1 UNL1 0.000
    32 H      -1.674047     0.617364    -0.407436 H          1 UNL1 0.000
    33 C       1.014274     0.667014    -0.793496 C          1 UNL1 0.000
    34 C       1.224244     1.890709    -1.450560 C          1 UNL1 0.000
    35 C       1.917842     1.943007    -2.663104 C          1 UNL1 0.000
    36 C       2.401548     0.757806    -3.228632 C          1 UNL1 0.000
    37 C       2.197688    -0.472740    -2.593790 C          1 UNL1 0.000
    38 C       1.507569    -0.510900    -1.378712 C          1 UNL1 0.000
    39 N       3.132622     0.805710    -4.497808 N          1 UNL1 0.000
    40 O       3.583753     1.902148    -4.859881 O          1 UNL1 0.000
    41 O       3.257568    -0.252448    -5.129877 O          1 UNL1 0.000
    42 H       0.848393     2.814223    -1.012235 H          1 UNL1 0.000
    43 H       2.068823     2.904695    -3.149102 H          1 UNL1 0.000
    44 H       2.569093    -1.400189    -3.024595 H          1 UNL1 0.000
    45 H       1.351557    -1.469249    -0.885272 H          1 UNL1 0.000
@<TRIPOS>BOND
     1      1      2   1
     2      1      3   1
     3      3      4   2
     4      4      5   1
     5      5      6   2
     6      6      7   1
     7      7      8   2
     8      8      3   1
     9      2      9   2
    10      9     10   1
    11     10     11   2
    12     11     12   1
    13     12     13   2
    14     13      2   1
    15      4     14   1
    16     14     13   1
    17     15     16   2
    18     16     17   1
    19     17     18   2
    20     18     19   1
    21     19     20   2
    22     20     15   1
    23      1     15   1
    24      5     21   1
    25      6     22   1
    26      7     23   1
    27      8     24   1
    28      9     25   1
    29     10     26   1
    30     11     27   1
    31     12     28   1
    32     16     29   1
    33     17     30   1
    34     18     31   1
    35     20     32   1
    36     33     34   2
    37     34     35   1
    38     35     36   2
    39     36     37   1
    40     37     38   2
    41     38     33   1
    42     39     40   2
    43     39     41   1
    44     36     39   1
    45     34     42   1
    46     35     43   1
    47     37     44   1
    48     38     45   1
    49     19     33   1
