# Produced with molli package
@<TRIPOS>MOLECULE
I_10_N
40 44 0 0 0
SMALL
USER_CHARGES

@<TRIPOS>ATOM
     1 C      -5.425223     4.105219     1.847241 C          1 UNL1 0.000
     2 C      -6.043653     2.858158     1.809650 C          1 UNL1 0.000
     3 C      -5.271227     1.692271     1.819516 C          1 UNL1 0.000
     4 C      -3.868709     1.749198     1.863734 C          1 UNL1 0.000
     5 C      -3.264670     3.018431     1.901773 C          1 UNL1 0.000
     6 C      -4.036379     4.185243     1.894359 C          1 UNL1 0.000
     7 N      -3.117288     0.528122     1.868214 N          1 UNL1 0.000
     8 C      -3.851517    -0.702119     1.834920 C          1 UNL1 0.000
     9 C      -5.255049    -0.662830     1.792008 C          1 UNL1 0.000
    10 C      -6.012197    -1.838032     1.756000 C          1 UNL1 0.000
    11 C      -5.377202    -3.077114     1.765725 C          1 UNL1 0.000
    12 C      -3.987203    -3.139650     1.811464 C          1 UNL1 0.000
    13 C      -3.230528    -1.963277     1.845340 C          1 UNL1 0.000
    14 O      -5.974447     0.510227     1.779718 O          1 UNL1 0.000
    15 C      -1.690701     0.541343     1.835310 C          1 UNL1 0.000
    16 C      -0.953204     0.556003     3.024852 C          1 UNL1 0.000
    17 C       0.434947     0.597772     2.971275 C          1 UNL1 0.000
    18 C       1.111053     0.626394     1.756202 C          1 UNL1 0.000
    19 C       0.383709     0.601977     0.563901 C          1 UNL1 0.000
    20 C      -1.014989     0.559210     0.604584 C          1 UNL1 0.000
    21 F       1.136348     0.616123     4.112577 F          1 UNL1 0.000
    22 H      -6.024877     5.011612     1.840151 H          1 UNL1 0.000
    23 H      -7.127411     2.789684     1.772289 H          1 UNL1 0.000
    24 H      -2.184056     3.122971     1.939620 H          1 UNL1 0.000
    25 H      -3.548366     5.156371     1.925579 H          1 UNL1 0.000
    26 H      -7.096807    -1.782837     1.720642 H          1 UNL1 0.000
    27 H      -5.965004    -3.990897     1.738740 H          1 UNL1 0.000
    28 H      -3.486887    -4.104964     1.821812 H          1 UNL1 0.000
    29 H      -2.148622    -2.053492     1.883092 H          1 UNL1 0.000
    30 H      -1.455278     0.541943     3.987116 H          1 UNL1 0.000
    31 H       2.196415     0.661095     1.752994 H          1 UNL1 0.000
    32 H      -1.591971     0.555130    -0.318566 H          1 UNL1 0.000
    33 C       1.074316     0.644003    -0.711356 C          1 UNL1 0.000
    34 C       1.129534    -0.461496    -1.536527 C          1 UNL1 0.000
    35 S       1.997725    -0.150551    -2.979398 S          1 UNL1 0.000
    36 C       2.302992     1.466470    -2.512440 C          1 UNL1 0.000
    37 C       1.761763     1.760282    -1.279950 C          1 UNL1 0.000
    38 H       0.707522    -1.443218    -1.367459 H          1 UNL1 0.000
    39 H       2.863427     2.123182    -3.163631 H          1 UNL1 0.000
    40 H       1.844959     2.734885    -0.814061 H          1 UNL1 0.000
@<TRIPOS>BOND
     1      1      2   2
     2      2      3   1
     3      3      4   2
     4      4      5   1
     5      5      6   2
     6      6      1   1
     7      4      7   1
     8      7      8   1
     9      8      9   2
    10      9     10   1
    11     10     11   2
    12     11     12   1
    13     12     13   2
    14     13      8   1
    15      3     14   1
    16      9     14   1
    17     15     16   2
    18     16     17   1
    19     17     18   2
    20     18     19   1
    21     19     20   2
    22     20     15   1
    23     17     21   1
    24      7     15   1
    25      1     22   1
    26      2     23   1
    27      5     24   1
    28      6     25   1
    29     10     26   1
    30     11     27   1
    31     12     28   1
    32     13     29   1
    33     16     30   1
    34     18     31   1
    35     20     32   1
    36     33     34   2
    37     34     35   1
    38     35     36   1
    39     36     37   2
    40     37     33   1
    41     34     38   1
    42     36     39   1
    43     37     40   1
    44     19     33   1
