# Produced with molli package
@<TRIPOS>MOLECULE
I_10_P
47 51 0 0 0
SMALL
USER_CHARGES

@<TRIPOS>ATOM
     1 C      -5.372498     4.124258     1.728610 C          1 UNL1 0.000
     2 C      -5.996715     2.879823     1.706729 C          1 UNL1 0.000
     3 C      -5.229174     1.710872     1.719107 C          1 UNL1 0.000
     4 C      -3.825832     1.761956     1.751163 C          1 UNL1 0.000
     5 C      -3.215843     3.028419     1.771048 C          1 UNL1 0.000
     6 C      -3.982743     4.198446     1.761075 C          1 UNL1 0.000
     7 N      -3.080528     0.537979     1.763733 N          1 UNL1 0.000
     8 C      -3.820970    -0.689503     1.755797 C          1 UNL1 0.000
     9 C      -5.224494    -0.644406     1.723285 C          1 UNL1 0.000
    10 C      -5.987398    -1.816581     1.715602 C          1 UNL1 0.000
    11 C      -5.358340    -3.058464     1.743458 C          1 UNL1 0.000
    12 C      -3.968371    -3.126858     1.777578 C          1 UNL1 0.000
    13 C      -3.206136    -1.953626     1.782720 C          1 UNL1 0.000
    14 O      -5.938275     0.531775     1.697357 O          1 UNL1 0.000
    15 C      -1.653258     0.540439     1.769193 C          1 UNL1 0.000
    16 C      -0.950523     0.555914     2.977934 C          1 UNL1 0.000
    17 C       0.437773     0.546476     2.962170 C          1 UNL1 0.000
    18 C       1.145422     0.519180     1.763963 C          1 UNL1 0.000
    19 C       0.462131     0.505294     0.541107 C          1 UNL1 0.000
    20 C      -0.941879     0.519301     0.557133 C          1 UNL1 0.000
    21 F       1.109369     0.560542     4.120718 F          1 UNL1 0.000
    22 H      -5.968399     5.033081     1.720840 H          1 UNL1 0.000
    23 H      -7.081082     2.815512     1.680998 H          1 UNL1 0.000
    24 H      -2.134313     3.127409     1.796907 H          1 UNL1 0.000
    25 H      -3.490426     5.167669     1.779522 H          1 UNL1 0.000
    26 H      -7.072001    -1.756888     1.688903 H          1 UNL1 0.000
    27 H      -5.950497    -3.969779     1.739065 H          1 UNL1 0.000
    28 H      -3.472135    -4.094026     1.800702 H          1 UNL1 0.000
    29 H      -2.124267    -2.048660     1.810196 H          1 UNL1 0.000
    30 H      -1.478993     0.571998     3.925800 H          1 UNL1 0.000
    31 H       2.231714     0.510992     1.794519 H          1 UNL1 0.000
    32 H      -1.495708     0.502149    -0.380505 H          1 UNL1 0.000
    33 C       1.195690     0.462604    -0.725873 C          1 UNL1 0.000
    34 C       1.340004     1.615442    -1.514107 C          1 UNL1 0.000
    35 C       2.042902     1.571540    -2.721690 C          1 UNL1 0.000
    36 C       2.612887     0.372781    -3.144001 C          1 UNL1 0.000
    37 C       2.454324    -0.787255    -2.392308 C          1 UNL1 0.000
    38 C       1.759286    -0.739491    -1.182088 C          1 UNL1 0.000
    39 O       3.276881     0.275795    -4.335865 O          1 UNL1 0.000
    40 C       4.514050     0.985973    -4.289636 C          1 UNL1 0.000
    41 H       0.899753     2.556597    -1.190848 H          1 UNL1 0.000
    42 H       2.126496     2.466767    -3.330285 H          1 UNL1 0.000
    43 H       2.873463    -1.725187    -2.744768 H          1 UNL1 0.000
    44 H       1.647764    -1.651622    -0.599635 H          1 UNL1 0.000
    45 H       5.079638     0.729774    -5.190634 H          1 UNL1 0.000
    46 H       5.112242     0.689331    -3.420320 H          1 UNL1 0.000
    47 H       4.349549     2.068244    -4.290919 H          1 UNL1 0.000
@<TRIPOS>BOND
     1      1      2   2
     2      2      3   1
     3      3      4   2
     4      4      5   1
     5      5      6   2
     6      6      1   1
     7      4      7   1
     8      7      8   1
     9      8      9   2
    10      9     10   1
    11     10     11   2
    12     11     12   1
    13     12     13   2
    14     13      8   1
    15      3     14   1
    16      9     14   1
    17     15     16   2
    18     16     17   1
    19     17     18   2
    20     18     19   1
    21     19     20   2
    22     20     15   1
    23     17     21   1
    24      7     15   1
    25      1     22   1
    26      2     23   1
    27      5     24   1
    28      6     25   1
    29     10     26   1
    30     11     27   1
    31     12     28   1
    32     13     29   1
    33     16     30   1
    34     18     31   1
    35     20     32   1
    36     33     34   2
    37     34     35   1
    38     35     36   2
    39     36     37   1
    40     37     38   2
    41     38     33   1
    42     39     40   1
    43     36     39   1
    44     34     41   1
    45     35     42   1
    46     37     43   1
    47     38     44   1
    48     40     45   1
    49     40     46   1
    50     40     47   1
    51     19     33   1
