# Produced with molli package
@<TRIPOS>MOLECULE
I_10_Q
41 45 0 0 0
SMALL
USER_CHARGES

@<TRIPOS>ATOM
     1 C      -5.318495     4.190481     1.627497 C          1 UNL1 0.000
     2 C      -5.960966     2.955559     1.655213 C          1 UNL1 0.000
     3 C      -5.210200     1.775661     1.658675 C          1 UNL1 0.000
     4 C      -3.805932     1.805973     1.636186 C          1 UNL1 0.000
     5 C      -3.177453     3.062963     1.605779 C          1 UNL1 0.000
     6 C      -3.927626     4.243981     1.601782 C          1 UNL1 0.000
     7 N      -3.078543     0.571213     1.647481 N          1 UNL1 0.000
     8 C      -3.837335    -0.645042     1.675871 C          1 UNL1 0.000
     9 C      -5.240063    -0.579152     1.694129 C          1 UNL1 0.000
    10 C      -6.019866    -1.739920     1.722436 C          1 UNL1 0.000
    11 C      -5.408688    -2.991034     1.732006 C          1 UNL1 0.000
    12 C      -4.019753    -3.080178     1.712745 C          1 UNL1 0.000
    13 C      -3.240770    -1.918359     1.684601 C          1 UNL1 0.000
    14 O      -5.936841     0.607326     1.687713 O          1 UNL1 0.000
    15 C      -1.651871     0.551544     1.670231 C          1 UNL1 0.000
    16 C      -0.966506     0.524808     2.889591 C          1 UNL1 0.000
    17 C       0.420130     0.482987     2.893301 C          1 UNL1 0.000
    18 C       1.145471     0.457182     1.706451 C          1 UNL1 0.000
    19 C       0.481440     0.484876     0.470863 C          1 UNL1 0.000
    20 C      -0.922650     0.542915     0.469365 C          1 UNL1 0.000
    21 F       1.075424     0.461515     4.061925 F          1 UNL1 0.000
    22 H      -5.900854     5.108055     1.625100 H          1 UNL1 0.000
    23 H      -7.046235     2.907243     1.674726 H          1 UNL1 0.000
    24 H      -2.094297     3.146477     1.582485 H          1 UNL1 0.000
    25 H      -3.420580     5.205527     1.577927 H          1 UNL1 0.000
    26 H      -7.103681    -1.664107     1.737231 H          1 UNL1 0.000
    27 H      -6.014121    -3.893354     1.754215 H          1 UNL1 0.000
    28 H      -3.537572    -4.054691     1.719544 H          1 UNL1 0.000
    29 H      -2.160530    -2.029906     1.668903 H          1 UNL1 0.000
    30 H      -1.509017     0.537207     3.829500 H          1 UNL1 0.000
    31 H       2.230878     0.433968     1.757805 H          1 UNL1 0.000
    32 H      -1.461172     0.575555    -0.477589 H          1 UNL1 0.000
    33 C       1.228117     0.456312    -0.784934 C          1 UNL1 0.000
    34 N       1.170017     1.579183    -1.544727 N          1 UNL1 0.000
    35 C       1.880872     1.548776    -2.696208 C          1 UNL1 0.000
    36 C       2.614959     0.443015    -3.090619 C          1 UNL1 0.000
    37 N       2.675143    -0.685809    -2.350523 N          1 UNL1 0.000
    38 C       1.968502    -0.651709    -1.193742 C          1 UNL1 0.000
    39 H       1.846313     2.449227    -3.299013 H          1 UNL1 0.000
    40 H       3.177400     0.436140    -4.017208 H          1 UNL1 0.000
    41 H       2.008260    -1.558236    -0.598719 H          1 UNL1 0.000
@<TRIPOS>BOND
     1      1      2   2
     2      2      3   1
     3      3      4   2
     4      4      5   1
     5      5      6   2
     6      6      1   1
     7      4      7   1
     8      7      8   1
     9      8      9   2
    10      9     10   1
    11     10     11   2
    12     11     12   1
    13     12     13   2
    14     13      8   1
    15      3     14   1
    16      9     14   1
    17     15     16   2
    18     16     17   1
    19     17     18   2
    20     18     19   1
    21     19     20   2
    22     20     15   1
    23     17     21   1
    24      7     15   1
    25      1     22   1
    26      2     23   1
    27      5     24   1
    28      6     25   1
    29     10     26   1
    30     11     27   1
    31     12     28   1
    32     13     29   1
    33     16     30   1
    34     18     31   1
    35     20     32   1
    36     33     34   2
    37     34     35   1
    38     35     36   2
    39     36     37   1
    40     37     38   2
    41     38     33   1
    42     35     39   1
    43     36     40   1
    44     38     41   1
    45     19     33   1
