# Produced with molli package
@<TRIPOS>MOLECULE
I_10_K
45 49 0 0 0
SMALL
USER_CHARGES

@<TRIPOS>ATOM
     1 C      -5.342408     4.060138     1.842809 C          1 UNL1 0.000
     2 C      -5.984242     2.824601     1.849726 C          1 UNL1 0.000
     3 C      -5.232901     1.645143     1.857474 C          1 UNL1 0.000
     4 C      -3.828504     1.676441     1.856195 C          1 UNL1 0.000
     5 C      -3.200577     2.934260     1.851656 C          1 UNL1 0.000
     6 C      -3.951349     4.114899     1.844610 C          1 UNL1 0.000
     7 N      -3.100529     0.441895     1.864759 N          1 UNL1 0.000
     8 C      -3.858701    -0.774938     1.879079 C          1 UNL1 0.000
     9 C      -5.261666    -0.709808     1.882054 C          1 UNL1 0.000
    10 C      -6.041038    -1.871010     1.896557 C          1 UNL1 0.000
    11 C      -5.429224    -3.121771     1.907246 C          1 UNL1 0.000
    12 C      -4.040076    -3.210109     1.901813 C          1 UNL1 0.000
    13 C      -3.261469    -2.047875     1.886904 C          1 UNL1 0.000
    14 O      -5.958963     0.476290     1.868736 O          1 UNL1 0.000
    15 C      -1.673509     0.422129     1.854829 C          1 UNL1 0.000
    16 C      -0.959013     0.353272     3.054617 C          1 UNL1 0.000
    17 C       0.427670     0.314117     3.021888 C          1 UNL1 0.000
    18 C       1.122658     0.340222     1.816073 C          1 UNL1 0.000
    19 C       0.429402     0.413826     0.599597 C          1 UNL1 0.000
    20 C      -0.974456     0.457155     0.635537 C          1 UNL1 0.000
    21 F       1.111995     0.247073     4.171374 F          1 UNL1 0.000
    22 H      -5.925803     4.977168     1.838372 H          1 UNL1 0.000
    23 H      -7.069768     2.775503     1.850836 H          1 UNL1 0.000
    24 H      -2.117599     3.018553     1.857240 H          1 UNL1 0.000
    25 H      -3.445835     5.077552     1.842753 H          1 UNL1 0.000
    26 H      -7.125048    -1.796017     1.899323 H          1 UNL1 0.000
    27 H      -6.034281    -4.024558     1.919102 H          1 UNL1 0.000
    28 H      -3.557386    -4.184384     1.909301 H          1 UNL1 0.000
    29 H      -2.180908    -2.159081     1.881450 H          1 UNL1 0.000
    30 H      -1.477500     0.326748     4.007777 H          1 UNL1 0.000
    31 H       2.208858     0.311282     1.839170 H          1 UNL1 0.000
    32 H      -1.542562     0.502052    -0.292779 H          1 UNL1 0.000
    33 C       1.151319     0.438659    -0.678131 C          1 UNL1 0.000
    34 C       1.077286     1.558728    -1.524120 C          1 UNL1 0.000
    35 C       1.766719     1.589136    -2.740580 C          1 UNL1 0.000
    36 C       2.538658     0.485847    -3.121297 C          1 UNL1 0.000
    37 C       2.624445    -0.641480    -2.296951 C          1 UNL1 0.000
    38 C       1.932546    -0.658142    -1.081881 C          1 UNL1 0.000
    39 N       3.265288     0.511377    -4.395052 N          1 UNL1 0.000
    40 O       4.121576    -0.363720    -4.586640 O          1 UNL1 0.000
    41 O       2.979995     1.407142    -5.202574 O          1 UNL1 0.000
    42 H       0.484762     2.424795    -1.231684 H          1 UNL1 0.000
    43 H       1.694698     2.473855    -3.369987 H          1 UNL1 0.000
    44 H       3.215718    -1.508849    -2.583491 H          1 UNL1 0.000
    45 H       1.997624    -1.543291    -0.450259 H          1 UNL1 0.000
@<TRIPOS>BOND
     1      1      2   2
     2      2      3   1
     3      3      4   2
     4      4      5   1
     5      5      6   2
     6      6      1   1
     7      4      7   1
     8      7      8   1
     9      8      9   2
    10      9     10   1
    11     10     11   2
    12     11     12   1
    13     12     13   2
    14     13      8   1
    15      3     14   1
    16      9     14   1
    17     15     16   2
    18     16     17   1
    19     17     18   2
    20     18     19   1
    21     19     20   2
    22     20     15   1
    23     17     21   1
    24      7     15   1
    25      1     22   1
    26      2     23   1
    27      5     24   1
    28      6     25   1
    29     10     26   1
    30     11     27   1
    31     12     28   1
    32     13     29   1
    33     16     30   1
    34     18     31   1
    35     20     32   1
    36     33     34   2
    37     34     35   1
    38     35     36   2
    39     36     37   1
    40     37     38   2
    41     38     33   1
    42     39     40   2
    43     39     41   1
    44     36     39   1
    45     34     42   1
    46     35     43   1
    47     37     44   1
    48     38     45   1
    49     19     33   1
