# Produced with molli package
@<TRIPOS>MOLECULE
I_10_M
44 48 0 0 0
SMALL
USER_CHARGES

@<TRIPOS>ATOM
     1 C      -5.330185     4.067949     1.824920 C          1 UNL1 0.000
     2 C      -5.953643     2.823900     1.780826 C          1 UNL1 0.000
     3 C      -5.185081     1.655581     1.767230 C          1 UNL1 0.000
     4 C      -3.781317     1.706537     1.790407 C          1 UNL1 0.000
     5 C      -3.172143     2.972741     1.832925 C          1 UNL1 0.000
     6 C      -3.940274     4.142205     1.852629 C          1 UNL1 0.000
     7 N      -3.035756     0.482412     1.773457 N          1 UNL1 0.000
     8 C      -3.777000    -0.744825     1.772917 C          1 UNL1 0.000
     9 C      -5.180659    -0.699347     1.754295 C          1 UNL1 0.000
    10 C      -5.944020    -1.871158     1.759767 C          1 UNL1 0.000
    11 C      -5.315126    -3.113081     1.788178 C          1 UNL1 0.000
    12 C      -3.924946    -3.181931     1.807698 C          1 UNL1 0.000
    13 C      -3.162315    -2.009068     1.798454 C          1 UNL1 0.000
    14 O      -5.894135     0.476865     1.730572 O          1 UNL1 0.000
    15 C      -1.608394     0.482306     1.759173 C          1 UNL1 0.000
    16 C      -0.889588     0.495790     2.958776 C          1 UNL1 0.000
    17 C       0.497763     0.478153     2.924447 C          1 UNL1 0.000
    18 C       1.189557     0.448647     1.717381 C          1 UNL1 0.000
    19 C       0.490977     0.443249     0.502479 C          1 UNL1 0.000
    20 C      -0.912858     0.459324     0.537322 C          1 UNL1 0.000
    21 F       1.185222     0.491832     4.073919 F          1 UNL1 0.000
    22 H      -5.926909     4.976255     1.839492 H          1 UNL1 0.000
    23 H      -7.038156     2.759298     1.759727 H          1 UNL1 0.000
    24 H      -2.090731     3.072357     1.856916 H          1 UNL1 0.000
    25 H      -3.449106     5.111490     1.891264 H          1 UNL1 0.000
    26 H      -7.028868    -1.811165     1.745099 H          1 UNL1 0.000
    27 H      -5.907755    -4.024096     1.796705 H          1 UNL1 0.000
    28 H      -3.429048    -4.149228     1.832492 H          1 UNL1 0.000
    29 H      -2.080407    -2.104640     1.817398 H          1 UNL1 0.000
    30 H      -1.405456     0.517102     3.913463 H          1 UNL1 0.000
    31 H       2.276174     0.440991     1.735406 H          1 UNL1 0.000
    32 H      -1.480591     0.448513    -0.392141 H          1 UNL1 0.000
    33 C       1.213541     0.435875    -0.771991 C          1 UNL1 0.000
    34 C       1.322644     1.607874    -1.536044 C          1 UNL1 0.000
    35 C       2.034493     1.614785    -2.739729 C          1 UNL1 0.000
    36 C       2.644197     0.444608    -3.200166 C          1 UNL1 0.000
    37 C       2.534919    -0.731687    -2.452929 C          1 UNL1 0.000
    38 C       1.825925    -0.733984    -1.246804 C          1 UNL1 0.000
    39 C       3.382030     0.453087    -4.429256 C          1 UNL1 0.000
    40 N       3.982122     0.462100    -5.422884 N          1 UNL1 0.000
    41 H       0.860084     2.530230    -1.188149 H          1 UNL1 0.000
    42 H       2.111578     2.539664    -3.308529 H          1 UNL1 0.000
    43 H       3.001366    -1.652093    -2.799837 H          1 UNL1 0.000
    44 H       1.752015    -1.658901    -0.676979 H          1 UNL1 0.000
@<TRIPOS>BOND
     1      1      2   2
     2      2      3   1
     3      3      4   2
     4      4      5   1
     5      5      6   2
     6      6      1   1
     7      4      7   1
     8      7      8   1
     9      8      9   2
    10      9     10   1
    11     10     11   2
    12     11     12   1
    13     12     13   2
    14     13      8   1
    15      3     14   1
    16      9     14   1
    17     15     16   2
    18     16     17   1
    19     17     18   2
    20     18     19   1
    21     19     20   2
    22     20     15   1
    23     17     21   1
    24      7     15   1
    25      1     22   1
    26      2     23   1
    27      5     24   1
    28      6     25   1
    29     10     26   1
    30     11     27   1
    31     12     28   1
    32     13     29   1
    33     16     30   1
    34     18     31   1
    35     20     32   1
    36     33     34   2
    37     34     35   1
    38     35     36   2
    39     36     37   1
    40     37     38   2
    41     38     33   1
    42     39     40   3
    43     36     39   1
    44     34     41   1
    45     35     42   1
    46     37     43   1
    47     38     44   1
    48     19     33   1
