# Produced with molli package
@<TRIPOS>MOLECULE
I_10_S
48 52 0 0 0
SMALL
USER_CHARGES

@<TRIPOS>ATOM
     1 C      -5.341694     4.108708     1.829686 C          1 UNL1 0.000
     2 C      -5.974988     2.868571     1.830457 C          1 UNL1 0.000
     3 C      -5.215858     1.694139     1.814618 C          1 UNL1 0.000
     4 C      -3.812224     1.735508     1.797806 C          1 UNL1 0.000
     5 C      -3.193132     2.997975     1.795402 C          1 UNL1 0.000
     6 C      -3.951372     4.173322     1.811947 C          1 UNL1 0.000
     7 N      -3.074683     0.506269     1.782959 N          1 UNL1 0.000
     8 C      -3.823124    -0.716029     1.793585 C          1 UNL1 0.000
     9 C      -5.226877    -0.661072     1.808406 C          1 UNL1 0.000
    10 C      -5.998357    -1.827571     1.818617 C          1 UNL1 0.000
    11 C      -5.377810    -3.073886     1.816806 C          1 UNL1 0.000
    12 C      -3.987866    -3.152165     1.805139 C          1 UNL1 0.000
    13 C      -3.216898    -1.984369     1.793406 C          1 UNL1 0.000
    14 O      -5.933140     0.519975     1.815429 O          1 UNL1 0.000
    15 C      -1.647551     0.504148     1.760507 C          1 UNL1 0.000
    16 C      -0.922717     0.544282     2.956138 C          1 UNL1 0.000
    17 C       0.464400     0.562620     2.914333 C          1 UNL1 0.000
    18 C       1.149853     0.539372     1.703631 C          1 UNL1 0.000
    19 C       0.444522     0.497788     0.493311 C          1 UNL1 0.000
    20 C      -0.958679     0.480518     0.535236 C          1 UNL1 0.000
    21 F       1.157365     0.609144     4.059699 F          1 UNL1 0.000
    22 H      -5.930923     5.021831     1.842580 H          1 UNL1 0.000
    23 H      -7.060006     2.812204     1.843542 H          1 UNL1 0.000
    24 H      -2.110833     3.090415     1.781329 H          1 UNL1 0.000
    25 H      -3.451686     5.138993     1.811170 H          1 UNL1 0.000
    26 H      -7.082823    -1.759780     1.829178 H          1 UNL1 0.000
    27 H      -5.976790    -3.980771     1.825890 H          1 UNL1 0.000
    28 H      -3.498888    -4.123295     1.806212 H          1 UNL1 0.000
    29 H      -2.135483    -2.086713     1.786465 H          1 UNL1 0.000
    30 H      -1.433917     0.567653     3.913309 H          1 UNL1 0.000
    31 H       2.236295     0.563399     1.714504 H          1 UNL1 0.000
    32 H      -1.530446     0.451755    -0.391317 H          1 UNL1 0.000
    33 C       1.159505     0.482535    -0.784350 C          1 UNL1 0.000
    34 C       1.311712     1.655325    -1.533901 C          1 UNL1 0.000
    35 C       2.022393     1.644442    -2.738645 C          1 UNL1 0.000
    36 C       2.591777     0.458912    -3.225125 C          1 UNL1 0.000
    37 C       2.422301    -0.720179    -2.492661 C          1 UNL1 0.000
    38 C       1.718704    -0.703630    -1.280383 C          1 UNL1 0.000
    39 C       3.354739     0.526930    -4.510540 C          1 UNL1 0.000
    40 C       4.052920    -0.693120    -5.055601 C          1 UNL1 0.000
    41 O       3.392778     1.587504    -5.133430 O          1 UNL1 0.000
    42 H       0.886003     2.592509    -1.179677 H          1 UNL1 0.000
    43 H       2.131759     2.574471    -3.294938 H          1 UNL1 0.000
    44 H       2.820185    -1.671376    -2.829717 H          1 UNL1 0.000
    45 H       1.606664    -1.631029    -0.720547 H          1 UNL1 0.000
    46 H       3.435169    -1.141515    -5.837826 H          1 UNL1 0.000
    47 H       4.282144    -1.436803    -4.293131 H          1 UNL1 0.000
    48 H       5.011258    -0.381438    -5.483610 H          1 UNL1 0.000
@<TRIPOS>BOND
     1      1      2   2
     2      2      3   1
     3      3      4   2
     4      4      5   1
     5      5      6   2
     6      6      1   1
     7      4      7   1
     8      7      8   1
     9      8      9   2
    10      9     10   1
    11     10     11   2
    12     11     12   1
    13     12     13   2
    14     13      8   1
    15      3     14   1
    16      9     14   1
    17     15     16   2
    18     16     17   1
    19     17     18   2
    20     18     19   1
    21     19     20   2
    22     20     15   1
    23     17     21   1
    24      7     15   1
    25      1     22   1
    26      2     23   1
    27      5     24   1
    28      6     25   1
    29     10     26   1
    30     11     27   1
    31     12     28   1
    32     13     29   1
    33     16     30   1
    34     18     31   1
    35     20     32   1
    36     33     34   2
    37     34     35   1
    38     35     36   2
    39     36     37   1
    40     37     38   2
    41     38     33   1
    42     36     39   1
    43     39     40   1
    44     39     41   2
    45     34     42   1
    46     35     43   1
    47     37     44   1
    48     38     45   1
    49     40     46   1
    50     40     47   1
    51     40     48   1
    52     19     33   1
