# Produced with molli package
@<TRIPOS>MOLECULE
I_10_T
46 50 0 0 0
SMALL
USER_CHARGES

@<TRIPOS>ATOM
     1 C      -5.393491     4.044462     1.805573 C          1 UNL1 0.000
     2 C      -6.006371     2.794404     1.823352 C          1 UNL1 0.000
     3 C      -5.228136     1.632548     1.804832 C          1 UNL1 0.000
     4 C      -3.825333     1.696225     1.767296 C          1 UNL1 0.000
     5 C      -3.226989     2.968167     1.748368 C          1 UNL1 0.000
     6 C      -4.004560     4.131207     1.768044 C          1 UNL1 0.000
     7 N      -3.069045     0.478926     1.752985 N          1 UNL1 0.000
     8 C      -3.798177    -0.754962     1.788466 C          1 UNL1 0.000
     9 C      -5.201806    -0.722428     1.826182 C          1 UNL1 0.000
    10 C      -5.953360    -1.901307     1.865862 C          1 UNL1 0.000
    11 C      -5.312396    -3.137428     1.868565 C          1 UNL1 0.000
    12 C      -3.922058    -3.193420     1.829589 C          1 UNL1 0.000
    13 C      -3.171363    -2.013517     1.788890 C          1 UNL1 0.000
    14 O      -5.926697     0.447167     1.828750 O          1 UNL1 0.000
    15 C      -1.641657     0.492869     1.746274 C          1 UNL1 0.000
    16 C      -0.931423     0.492432     2.951676 C          1 UNL1 0.000
    17 C       0.456072     0.488493     2.928144 C          1 UNL1 0.000
    18 C       1.156596     0.483261     1.726404 C          1 UNL1 0.000
    19 C       0.466719     0.487590     0.506198 C          1 UNL1 0.000
    20 C      -0.937382     0.495091     0.529843 C          1 UNL1 0.000
    21 F       1.134236     0.486965     4.083485 F          1 UNL1 0.000
    22 H      -5.997499     4.947831     1.821718 H          1 UNL1 0.000
    23 H      -7.089989     2.720132     1.853348 H          1 UNL1 0.000
    24 H      -2.146455     3.076908     1.719506 H          1 UNL1 0.000
    25 H      -3.521046     5.104959     1.754947 H          1 UNL1 0.000
    26 H      -7.038348    -1.851302     1.895825 H          1 UNL1 0.000
    27 H      -5.895608    -4.053920     1.900842 H          1 UNL1 0.000
    28 H      -3.416328    -4.155914     1.831046 H          1 UNL1 0.000
    29 H      -2.088769    -2.098857     1.757951 H          1 UNL1 0.000
    30 H      -1.454669     0.491578     3.902477 H          1 UNL1 0.000
    31 H       2.243096     0.480990     1.749935 H          1 UNL1 0.000
    32 H      -1.496059     0.491295    -0.405079 H          1 UNL1 0.000
    33 C       1.199375     0.479536    -0.762129 C          1 UNL1 0.000
    34 C       1.807732    -0.693881    -1.230052 C          1 UNL1 0.000
    35 C       2.524478    -0.700598    -2.430406 C          1 UNL1 0.000
    36 C       2.651290     0.469263    -3.185678 C          1 UNL1 0.000
    37 C       2.041753     1.642416    -2.727221 C          1 UNL1 0.000
    38 C       1.321518     1.646364    -1.528960 C          1 UNL1 0.000
    39 C       3.426051     0.479530    -4.469985 C          1 UNL1 0.000
    40 H       1.724136    -1.616555    -0.659315 H          1 UNL1 0.000
    41 H       2.983926    -1.627132    -2.767127 H          1 UNL1 0.000
    42 H       2.127541     2.563691    -3.299294 H          1 UNL1 0.000
    43 H       0.863036     2.573059    -1.190078 H          1 UNL1 0.000
    44 H       4.245686     1.202911    -4.409903 H          1 UNL1 0.000
    45 H       2.769937     0.746434    -5.304517 H          1 UNL1 0.000
    46 H       3.861685    -0.501945    -4.684400 H          1 UNL1 0.000
@<TRIPOS>BOND
     1      1      2   2
     2      2      3   1
     3      3      4   2
     4      4      5   1
     5      5      6   2
     6      6      1   1
     7      4      7   1
     8      7      8   1
     9      8      9   2
    10      9     10   1
    11     10     11   2
    12     11     12   1
    13     12     13   2
    14     13      8   1
    15      3     14   1
    16      9     14   1
    17     15     16   2
    18     16     17   1
    19     17     18   2
    20     18     19   1
    21     19     20   2
    22     20     15   1
    23     17     21   1
    24      7     15   1
    25      1     22   1
    26      2     23   1
    27      5     24   1
    28      6     25   1
    29     10     26   1
    30     11     27   1
    31     12     28   1
    32     13     29   1
    33     16     30   1
    34     18     31   1
    35     20     32   1
    36     33     34   2
    37     34     35   1
    38     35     36   2
    39     36     37   1
    40     37     38   2
    41     38     33   1
    42     36     39   1
    43     34     40   1
    44     35     41   1
    45     37     42   1
    46     38     43   1
    47     39     44   1
    48     39     45   1
    49     39     46   1
    50     19     33   1
