# Produced with molli package
@<TRIPOS>MOLECULE
I_10_O
42 46 0 0 0
SMALL
USER_CHARGES

@<TRIPOS>ATOM
     1 C      -5.291797     4.191760     1.756462 C          1 UNL1 0.000
     2 C      -5.944135     2.961790     1.766913 C          1 UNL1 0.000
     3 C      -5.203051     1.776039     1.742127 C          1 UNL1 0.000
     4 C      -3.798611     1.795354     1.708521 C          1 UNL1 0.000
     5 C      -3.160137     3.047460     1.697091 C          1 UNL1 0.000
     6 C      -3.900679     4.234375     1.720587 C          1 UNL1 0.000
     7 N      -3.081859     0.554778     1.690778 N          1 UNL1 0.000
     8 C      -3.850626    -0.655449     1.693384 C          1 UNL1 0.000
     9 C      -5.252426    -0.578707     1.725875 C          1 UNL1 0.000
    10 C      -6.041285    -1.733687     1.730143 C          1 UNL1 0.000
    11 C      -5.440394    -2.989515     1.699157 C          1 UNL1 0.000
    12 C      -4.052516    -3.089234     1.663146 C          1 UNL1 0.000
    13 C      -3.264600    -1.933313     1.659828 C          1 UNL1 0.000
    14 O      -5.939153     0.613216     1.756324 O          1 UNL1 0.000
    15 C      -1.655027     0.520769     1.707924 C          1 UNL1 0.000
    16 C      -0.966762     0.425727     2.921635 C          1 UNL1 0.000
    17 C       0.419651     0.358778     2.919133 C          1 UNL1 0.000
    18 C       1.140236     0.374813     1.728901 C          1 UNL1 0.000
    19 C       0.473228     0.472152     0.499518 C          1 UNL1 0.000
    20 C      -0.929693     0.556216     0.505327 C          1 UNL1 0.000
    21 F       1.076880     0.267758     4.082469 F          1 UNL1 0.000
    22 H      -5.866476     5.113923     1.775203 H          1 UNL1 0.000
    23 H      -7.029555     2.921799     1.794461 H          1 UNL1 0.000
    24 H      -2.076377     3.122179     1.666366 H          1 UNL1 0.000
    25 H      -3.385741     5.191938     1.709694 H          1 UNL1 0.000
    26 H      -7.124237    -1.649599     1.757105 H          1 UNL1 0.000
    27 H      -6.052924    -3.887213     1.701990 H          1 UNL1 0.000
    28 H      -3.577948    -4.067051     1.636886 H          1 UNL1 0.000
    29 H      -2.185369    -2.052345     1.627804 H          1 UNL1 0.000
    30 H      -1.506017     0.401652     3.863257 H          1 UNL1 0.000
    31 H       2.224946     0.326203     1.771680 H          1 UNL1 0.000
    32 H      -1.467619     0.639528    -0.438201 H          1 UNL1 0.000
    33 C       1.214808     0.480260    -0.762762 C          1 UNL1 0.000
    34 N       1.150773     1.631483    -1.473736 N          1 UNL1 0.000
    35 C       1.831901     1.678136    -2.639935 C          1 UNL1 0.000
    36 C       2.569648     0.621196    -3.145791 C          1 UNL1 0.000
    37 C       2.616285    -0.556851    -2.411390 C          1 UNL1 0.000
    38 C       1.934105    -0.630691    -1.199805 C          1 UNL1 0.000
    39 H       1.766496     2.621236    -3.174989 H          1 UNL1 0.000
    40 H       3.093414     0.713972    -4.090596 H          1 UNL1 0.000
    41 H       3.177064    -1.411884    -2.777866 H          1 UNL1 0.000
    42 H       1.954237    -1.544827    -0.615385 H          1 UNL1 0.000
@<TRIPOS>BOND
     1      1      2   2
     2      2      3   1
     3      3      4   2
     4      4      5   1
     5      5      6   2
     6      6      1   1
     7      4      7   1
     8      7      8   1
     9      8      9   2
    10      9     10   1
    11     10     11   2
    12     11     12   1
    13     12     13   2
    14     13      8   1
    15      3     14   1
    16      9     14   1
    17     15     16   2
    18     16     17   1
    19     17     18   2
    20     18     19   1
    21     19     20   2
    22     20     15   1
    23     17     21   1
    24      7     15   1
    25      1     22   1
    26      2     23   1
    27      5     24   1
    28      6     25   1
    29     10     26   1
    30     11     27   1
    31     12     28   1
    32     13     29   1
    33     16     30   1
    34     18     31   1
    35     20     32   1
    36     33     34   2
    37     34     35   1
    38     35     36   2
    39     36     37   1
    40     37     38   2
    41     38     33   1
    42     35     39   1
    43     36     40   1
    44     37     41   1
    45     38     42   1
    46     19     33   1
