# Produced with molli package
@<TRIPOS>MOLECULE
I_10_L
47 52 0 0 0
SMALL
USER_CHARGES

@<TRIPOS>ATOM
     1 C      -5.240813     4.181745     1.675024 C          1 UNL1 0.000
     2 C      -5.899292     2.955308     1.707148 C          1 UNL1 0.000
     3 C      -5.164750     1.765261     1.694483 C          1 UNL1 0.000
     4 C      -3.760996     1.776845     1.648348 C          1 UNL1 0.000
     5 C      -3.116317     3.025773     1.613765 C          1 UNL1 0.000
     6 C      -3.849998     4.216873     1.627911 C          1 UNL1 0.000
     7 N      -3.049508     0.532483     1.644788 N          1 UNL1 0.000
     8 C      -3.822900    -0.673167     1.702635 C          1 UNL1 0.000
     9 C      -5.224350    -0.588532     1.747831 C          1 UNL1 0.000
    10 C      -6.018557    -1.738017     1.811799 C          1 UNL1 0.000
    11 C      -5.423433    -2.996607     1.831252 C          1 UNL1 0.000
    12 C      -4.036339    -3.104311     1.782944 C          1 UNL1 0.000
    13 C      -3.242853    -1.953697     1.717474 C          1 UNL1 0.000
    14 O      -5.906073     0.606752     1.735552 O          1 UNL1 0.000
    15 C      -1.622392     0.497609     1.650711 C          1 UNL1 0.000
    16 C      -0.923470     0.471447     2.862263 C          1 UNL1 0.000
    17 C       0.463939     0.438144     2.851616 C          1 UNL1 0.000
    18 C       1.175648     0.429022     1.656275 C          1 UNL1 0.000
    19 C       0.497346     0.458301     0.430129 C          1 UNL1 0.000
    20 C      -0.906900     0.492930     0.441107 C          1 UNL1 0.000
    21 F       1.130677     0.417162     4.013272 F          1 UNL1 0.000
    22 H      -5.810850     5.106937     1.688122 H          1 UNL1 0.000
    23 H      -6.984658     2.921455     1.745215 H          1 UNL1 0.000
    24 H      -2.032706     3.094431     1.577978 H          1 UNL1 0.000
    25 H      -3.330708     5.171781     1.603927 H          1 UNL1 0.000
    26 H      -7.100733    -1.647499     1.848072 H          1 UNL1 0.000
    27 H      -6.039663    -3.890314     1.883282 H          1 UNL1 0.000
    28 H      -3.566479    -4.084756     1.796256 H          1 UNL1 0.000
    29 H      -2.164403    -2.079245     1.678412 H          1 UNL1 0.000
    30 H      -1.455381     0.478572     3.808250 H          1 UNL1 0.000
    31 H       2.261697     0.407256     1.690046 H          1 UNL1 0.000
    32 H      -1.456615     0.509946    -0.498945 H          1 UNL1 0.000
    33 C       1.240225     0.456676    -0.833647 C          1 UNL1 0.000
    34 C       1.355406     1.629755    -1.593047 C          1 UNL1 0.000
    35 C       2.069823     1.663742    -2.796991 C          1 UNL1 0.000
    36 C       2.667083     0.474856    -3.226486 C          1 UNL1 0.000
    37 C       2.574901    -0.715589    -2.507142 C          1 UNL1 0.000
    38 C       1.854964    -0.722166    -1.295636 C          1 UNL1 0.000
    39 N       3.417389     0.211634    -4.350694 N          1 UNL1 0.000
    40 C       3.797004    -1.104479    -4.368659 C          1 UNL1 0.000
    41 C       3.289323    -1.704113    -3.238854 C          1 UNL1 0.000
    42 H       0.887038     2.547729    -1.240850 H          1 UNL1 0.000
    43 H       2.152957     2.582352    -3.368279 H          1 UNL1 0.000
    44 H       1.774004    -1.643946    -0.725678 H          1 UNL1 0.000
    45 H       3.649211     0.895234    -5.057774 H          1 UNL1 0.000
    46 H       4.392992    -1.498982    -5.180575 H          1 UNL1 0.000
    47 H       3.416282    -2.743234    -2.965061 H          1 UNL1 0.000
@<TRIPOS>BOND
     1      1      2   2
     2      2      3   1
     3      3      4   2
     4      4      5   1
     5      5      6   2
     6      6      1   1
     7      4      7   1
     8      7      8   1
     9      8      9   2
    10      9     10   1
    11     10     11   2
    12     11     12   1
    13     12     13   2
    14     13      8   1
    15      3     14   1
    16      9     14   1
    17     15     16   2
    18     16     17   1
    19     17     18   2
    20     18     19   1
    21     19     20   2
    22     20     15   1
    23     17     21   1
    24      7     15   1
    25      1     22   1
    26      2     23   1
    27      5     24   1
    28      6     25   1
    29     10     26   1
    30     11     27   1
    31     12     28   1
    32     13     29   1
    33     16     30   1
    34     18     31   1
    35     20     32   1
    36     33     34   2
    37     34     35   1
    38     35     36   2
    39     36     37   1
    40     37     38   2
    41     38     33   1
    42     36     39   1
    43     39     40   1
    44     40     41   2
    45     41     37   1
    46     34     42   1
    47     35     43   1
    48     38     44   1
    49     39     45   1
    50     40     46   1
    51     41     47   1
    52     19     33   1
