# Produced with molli package
@<TRIPOS>MOLECULE
I_10_R
44 48 0 0 0
SMALL
USER_CHARGES

@<TRIPOS>ATOM
     1 C      -5.453594     4.093734     1.995936 C          1 UNL1 0.000
     2 C      -6.063941     2.842533     1.978081 C          1 UNL1 0.000
     3 C      -5.285920     1.685594     1.868765 C          1 UNL1 0.000
     4 C      -3.885538     1.755070     1.780097 C          1 UNL1 0.000
     5 C      -3.290168     3.028304     1.791943 C          1 UNL1 0.000
     6 C      -4.067753     4.186529     1.900391 C          1 UNL1 0.000
     7 N      -3.128743     0.542072     1.679279 N          1 UNL1 0.000
     8 C      -3.856272    -0.693894     1.673785 C          1 UNL1 0.000
     9 C      -5.257564    -0.666861     1.762415 C          1 UNL1 0.000
    10 C      -6.006347    -1.848207     1.767665 C          1 UNL1 0.000
    11 C      -5.365108    -3.081354     1.683850 C          1 UNL1 0.000
    12 C      -3.977036    -3.132075     1.594424 C          1 UNL1 0.000
    13 C      -3.229152    -1.949768     1.589656 C          1 UNL1 0.000
    14 O      -5.982235     0.498729     1.857780 O          1 UNL1 0.000
    15 C      -1.701229     0.554801     1.694249 C          1 UNL1 0.000
    16 C      -1.011847     0.563906     2.911694 C          1 UNL1 0.000
    17 C       0.375198     0.539682     2.913140 C          1 UNL1 0.000
    18 C       1.096564     0.497155     1.724547 C          1 UNL1 0.000
    19 C       0.428891     0.489327     0.491106 C          1 UNL1 0.000
    20 C      -0.975933     0.530507     0.490836 C          1 UNL1 0.000
    21 F       1.033607     0.546979     4.079487 F          1 UNL1 0.000
    22 H      -6.057158     4.993477     2.081660 H          1 UNL1 0.000
    23 H      -7.145279     2.763636     2.049713 H          1 UNL1 0.000
    24 H      -2.212425     3.142318     1.713088 H          1 UNL1 0.000
    25 H      -3.586418     5.161479     1.908846 H          1 UNL1 0.000
    26 H      -7.089567    -1.802497     1.840292 H          1 UNL1 0.000
    27 H      -5.946527    -3.999574     1.690022 H          1 UNL1 0.000
    28 H      -3.471460    -4.092445     1.529947 H          1 UNL1 0.000
    29 H      -2.148428    -2.031474     1.520531 H          1 UNL1 0.000
    30 H      -1.551849     0.584735     3.853096 H          1 UNL1 0.000
    31 H       2.182137     0.484306     1.772223 H          1 UNL1 0.000
    32 H      -1.517048     0.534502    -0.454584 H          1 UNL1 0.000
    33 C       1.177936     0.431795    -0.764900 C          1 UNL1 0.000
    34 N       1.134355     1.555237    -1.528969 N          1 UNL1 0.000
    35 C       1.839167     1.553405    -2.686136 C          1 UNL1 0.000
    36 C       2.571072     0.459325    -3.103069 C          1 UNL1 0.000
    37 C       2.610569    -0.699086    -2.335936 C          1 UNL1 0.000
    38 C       1.899101    -0.707524    -1.137749 C          1 UNL1 0.000
    39 N       3.296760     0.537687    -4.338134 N          1 UNL1 0.000
    40 O       2.699670     0.184164    -5.361511 O          1 UNL1 0.000
    41 O       4.461973     0.946928    -4.276676 O          1 UNL1 0.000
    42 H       1.790665     2.474055    -3.260771 H          1 UNL1 0.000
    43 H       3.176106    -1.571007    -2.651355 H          1 UNL1 0.000
    44 H       1.900944    -1.591398    -0.505974 H          1 UNL1 0.000
@<TRIPOS>BOND
     1      1      2   2
     2      2      3   1
     3      3      4   2
     4      4      5   1
     5      5      6   2
     6      6      1   1
     7      4      7   1
     8      7      8   1
     9      8      9   2
    10      9     10   1
    11     10     11   2
    12     11     12   1
    13     12     13   2
    14     13      8   1
    15      3     14   1
    16      9     14   1
    17     15     16   2
    18     16     17   1
    19     17     18   2
    20     18     19   1
    21     19     20   2
    22     20     15   1
    23     17     21   1
    24      7     15   1
    25      1     22   1
    26      2     23   1
    27      5     24   1
    28      6     25   1
    29     10     26   1
    30     11     27   1
    31     12     28   1
    32     13     29   1
    33     16     30   1
    34     18     31   1
    35     20     32   1
    36     33     34   2
    37     34     35   1
    38     35     36   2
    39     36     37   1
    40     37     38   2
    41     38     33   1
    42     39     40   2
    43     39     41   1
    44     36     39   1
    45     35     42   1
    46     37     43   1
    47     38     44   1
    48     19     33   1
