# Produced with molli package
@<TRIPOS>MOLECULE
I_1_S
48 52 0 0 0
SMALL
USER_CHARGES

@<TRIPOS>ATOM
     1 C      -6.192596     4.053750     0.620733 C          1 UNL1 0.000
     2 C      -6.803351     2.802595     0.601878 C          1 UNL1 0.000
     3 C      -6.022718     1.642120     0.598503 C          1 UNL1 0.000
     4 C      -4.619595     1.708359     0.612836 C          1 UNL1 0.000
     5 C      -4.023482     2.981320     0.630451 C          1 UNL1 0.000
     6 C      -4.803345     4.142976     0.634892 C          1 UNL1 0.000
     7 N      -3.860803     0.492602     0.611448 N          1 UNL1 0.000
     8 C      -4.588027    -0.742525     0.603532 C          1 UNL1 0.000
     9 C      -5.992123    -0.712929     0.589080 C          1 UNL1 0.000
    10 C      -6.741758    -1.893670     0.582129 C          1 UNL1 0.000
    11 C      -6.098332    -3.128564     0.590827 C          1 UNL1 0.000
    12 C      -4.707339    -3.181498     0.605094 C          1 UNL1 0.000
    13 C      -3.958667    -1.999711     0.610592 C          1 UNL1 0.000
    14 O      -6.719255     0.455324     0.581351 O          1 UNL1 0.000
    15 C      -2.434091     0.509227     0.623811 C          1 UNL1 0.000
    16 C      -1.735482     0.499886     1.837953 C          1 UNL1 0.000
    17 C      -0.337878     0.503514     1.848801 C          1 UNL1 0.000
    18 C       0.387216     0.516476     0.648090 C          1 UNL1 0.000
    19 C      -0.317841     0.530667    -0.564901 C          1 UNL1 0.000
    20 C      -1.715336     0.526951    -0.578221 C          1 UNL1 0.000
    21 H      -6.798396     4.956034     0.624781 H          1 UNL1 0.000
    22 H      -7.887167     2.726425     0.590843 H          1 UNL1 0.000
    23 H      -2.942446     3.090591     0.642465 H          1 UNL1 0.000
    24 H      -4.321178     5.117339     0.650069 H          1 UNL1 0.000
    25 H      -7.827194    -1.845963     0.570780 H          1 UNL1 0.000
    26 H      -6.680244    -4.046405     0.586707 H          1 UNL1 0.000
    27 H      -4.199601    -4.142797     0.612303 H          1 UNL1 0.000
    28 H      -2.875185    -2.080569     0.621563 H          1 UNL1 0.000
    29 H      -2.284320     0.487671     2.776457 H          1 UNL1 0.000
    30 H       0.185282     0.495597     2.802896 H          1 UNL1 0.000
    31 H       0.221384     0.543753    -1.510012 H          1 UNL1 0.000
    32 H      -2.247998     0.535467    -1.526055 H          1 UNL1 0.000
    33 C       1.851462     0.513745     0.658868 C          1 UNL1 0.000
    34 C       2.569424     1.715874     0.669791 C          1 UNL1 0.000
    35 C       3.967900     1.710922     0.666175 C          1 UNL1 0.000
    36 C       4.678302     0.502663     0.651936 C          1 UNL1 0.000
    37 C       3.967656    -0.701845     0.659716 C          1 UNL1 0.000
    38 C       2.566455    -0.692699     0.657386 C          1 UNL1 0.000
    39 C       6.171867     0.567093     0.634035 C          1 UNL1 0.000
    40 C       6.981789    -0.691871     0.456855 C          1 UNL1 0.000
    41 O       6.733051     1.651071     0.783803 O          1 UNL1 0.000
    42 H       2.042011     2.668045     0.678977 H          1 UNL1 0.000
    43 H       4.500355     2.660835     0.672423 H          1 UNL1 0.000
    44 H       4.468649    -1.664476     0.673179 H          1 UNL1 0.000
    45 H       2.028565    -1.639620     0.654652 H          1 UNL1 0.000
    46 H       7.886531    -0.447063    -0.109086 H          1 UNL1 0.000
    47 H       6.453215    -1.453936    -0.117447 H          1 UNL1 0.000
    48 H       7.263316    -1.083889     1.437252 H          1 UNL1 0.000
@<TRIPOS>BOND
     1      1      2   2
     2      2      3   1
     3      3      4   2
     4      4      5   1
     5      5      6   2
     6      6      1   1
     7      4      7   1
     8      7      8   1
     9      8      9   2
    10      9     10   1
    11     10     11   2
    12     11     12   1
    13     12     13   2
    14     13      8   1
    15      3     14   1
    16      9     14   1
    17     15     16   2
    18     16     17   1
    19     17     18   2
    20     18     19   1
    21     19     20   2
    22     20     15   1
    23      7     15   1
    24      1     21   1
    25      2     22   1
    26      5     23   1
    27      6     24   1
    28     10     25   1
    29     11     26   1
    30     12     27   1
    31     13     28   1
    32     16     29   1
    33     17     30   1
    34     19     31   1
    35     20     32   1
    36     33     34   2
    37     34     35   1
    38     35     36   2
    39     36     37   1
    40     37     38   2
    41     38     33   1
    42     36     39   1
    43     39     40   1
    44     39     41   2
    45     34     42   1
    46     35     43   1
    47     37     44   1
    48     38     45   1
    49     40     46   1
    50     40     47   1
    51     40     48   1
    52     18     33   1
