# Produced with molli package
@<TRIPOS>MOLECULE
I_1_T
46 50 0 0 0
SMALL
USER_CHARGES

@<TRIPOS>ATOM
     1 C      -6.084871     4.056669     0.578550 C          1 UNL1 0.000
     2 C      -6.700130     2.807634     0.556038 C          1 UNL1 0.000
     3 C      -5.923737     1.644805     0.520869 C          1 UNL1 0.000
     4 C      -4.520680     1.706843     0.504992 C          1 UNL1 0.000
     5 C      -3.919997     2.977773     0.525571 C          1 UNL1 0.000
     6 C      -4.695455     4.141620     0.563262 C          1 UNL1 0.000
     7 N      -3.765779     0.489045     0.474225 N          1 UNL1 0.000
     8 C      -4.496089    -0.743943     0.482639 C          1 UNL1 0.000
     9 C      -5.900105    -0.710333     0.499489 C          1 UNL1 0.000
    10 C      -6.653012    -1.888941     0.512310 C          1 UNL1 0.000
    11 C      -6.012814    -3.125581     0.510595 C          1 UNL1 0.000
    12 C      -4.621985    -3.182357     0.492934 C          1 UNL1 0.000
    13 C      -3.870038    -2.002704     0.477391 C          1 UNL1 0.000
    14 O      -6.624006     0.460128     0.506281 O          1 UNL1 0.000
    15 C      -2.339056     0.503512     0.470406 C          1 UNL1 0.000
    16 C      -1.628205     0.481916     1.677177 C          1 UNL1 0.000
    17 C      -0.231308     0.497327     1.673330 C          1 UNL1 0.000
    18 C       0.481357     0.536217     0.465588 C          1 UNL1 0.000
    19 C      -0.235588     0.557465    -0.739991 C          1 UNL1 0.000
    20 C      -1.633170     0.540518    -0.739000 C          1 UNL1 0.000
    21 H      -6.687355     4.960631     0.608852 H          1 UNL1 0.000
    22 H      -7.784099     2.734899     0.568262 H          1 UNL1 0.000
    23 H      -2.838522     3.083341     0.515593 H          1 UNL1 0.000
    24 H      -4.209439     5.113972     0.581779 H          1 UNL1 0.000
    25 H      -7.738218    -1.838196     0.525627 H          1 UNL1 0.000
    26 H      -6.597040    -4.041857     0.523279 H          1 UNL1 0.000
    27 H      -4.116567    -4.144939     0.491809 H          1 UNL1 0.000
    28 H      -2.786692    -2.086313     0.463230 H          1 UNL1 0.000
    29 H      -2.166698     0.454406     2.621149 H          1 UNL1 0.000
    30 H       0.303344     0.482392     2.620958 H          1 UNL1 0.000
    31 H       0.295655     0.585611    -1.689265 H          1 UNL1 0.000
    32 H      -2.175344     0.556156    -1.681186 H          1 UNL1 0.000
    33 C       1.945443     0.556790     0.466576 C          1 UNL1 0.000
    34 C       2.678999    -0.634873     0.545652 C          1 UNL1 0.000
    35 C       4.076911    -0.615455     0.557395 C          1 UNL1 0.000
    36 C       4.768902     0.597953     0.487173 C          1 UNL1 0.000
    37 C       4.041663     1.791048     0.411348 C          1 UNL1 0.000
    38 C       2.644197     1.769699     0.398541 C          1 UNL1 0.000
    39 C       6.267987     0.634812     0.517467 C          1 UNL1 0.000
    40 H       2.160612    -1.589985     0.599917 H          1 UNL1 0.000
    41 H       4.618401    -1.556349     0.622686 H          1 UNL1 0.000
    42 H       4.559172     2.746570     0.363932 H          1 UNL1 0.000
    43 H       2.098784     2.709398     0.341178 H          1 UNL1 0.000
    44 H       6.613365     1.097686     1.447354 H          1 UNL1 0.000
    45 H       6.650571     1.207423    -0.333671 H          1 UNL1 0.000
    46 H       6.695378    -0.371600     0.459087 H          1 UNL1 0.000
@<TRIPOS>BOND
     1      1      2   2
     2      2      3   1
     3      3      4   2
     4      4      5   1
     5      5      6   2
     6      6      1   1
     7      4      7   1
     8      7      8   1
     9      8      9   2
    10      9     10   1
    11     10     11   2
    12     11     12   1
    13     12     13   2
    14     13      8   1
    15      3     14   1
    16      9     14   1
    17     15     16   2
    18     16     17   1
    19     17     18   2
    20     18     19   1
    21     19     20   2
    22     20     15   1
    23      7     15   1
    24      1     21   1
    25      2     22   1
    26      5     23   1
    27      6     24   1
    28     10     25   1
    29     11     26   1
    30     12     27   1
    31     13     28   1
    32     16     29   1
    33     17     30   1
    34     19     31   1
    35     20     32   1
    36     33     34   2
    37     34     35   1
    38     35     36   2
    39     36     37   1
    40     37     38   2
    41     38     33   1
    42     36     39   1
    43     34     40   1
    44     35     41   1
    45     37     42   1
    46     38     43   1
    47     39     44   1
    48     39     45   1
    49     39     46   1
    50     18     33   1
