# Produced with molli package
@<TRIPOS>MOLECULE
I_1_M
44 48 0 0 0
SMALL
USER_CHARGES

@<TRIPOS>ATOM
     1 C      -6.188718     4.039122     0.629352 C          1 UNL1 0.000
     2 C      -6.792860     2.786211     0.566975 C          1 UNL1 0.000
     3 C      -6.007879     1.628792     0.579961 C          1 UNL1 0.000
     4 C      -4.606504     1.699996     0.645433 C          1 UNL1 0.000
     5 C      -4.017144     2.974534     0.710856 C          1 UNL1 0.000
     6 C      -4.801689     4.133090     0.704216 C          1 UNL1 0.000
     7 N      -3.842788     0.487257     0.652640 N          1 UNL1 0.000
     8 C      -4.565371    -0.750587     0.629251 C          1 UNL1 0.000
     9 C      -5.968388    -0.725882     0.569031 C          1 UNL1 0.000
    10 C      -6.713706    -1.909073     0.543924 C          1 UNL1 0.000
    11 C      -6.067166    -3.141697     0.582787 C          1 UNL1 0.000
    12 C      -4.677258    -3.189895     0.642951 C          1 UNL1 0.000
    13 C      -3.932714    -2.005653     0.663377 C          1 UNL1 0.000
    14 O      -6.698420     0.439738     0.525340 O          1 UNL1 0.000
    15 C      -2.416192     0.509495     0.627382 C          1 UNL1 0.000
    16 C      -1.682789     0.430892     1.817634 C          1 UNL1 0.000
    17 C      -0.285598     0.437275     1.786645 C          1 UNL1 0.000
    18 C       0.404680     0.524108     0.567919 C          1 UNL1 0.000
    19 C      -0.334844     0.607462    -0.620790 C          1 UNL1 0.000
    20 C      -1.732156     0.599955    -0.592226 C          1 UNL1 0.000
    21 H      -6.798208     4.938918     0.622440 H          1 UNL1 0.000
    22 H      -7.875007     2.706138     0.510670 H          1 UNL1 0.000
    23 H      -2.938287     3.086936     0.774541 H          1 UNL1 0.000
    24 H      -4.325262     5.108822     0.759067 H          1 UNL1 0.000
    25 H      -7.798231    -1.865039     0.494577 H          1 UNL1 0.000
    26 H      -6.645751    -4.061491     0.565664 H          1 UNL1 0.000
    27 H      -4.167098    -4.149463     0.674114 H          1 UNL1 0.000
    28 H      -2.849982    -2.083439     0.709368 H          1 UNL1 0.000
    29 H      -2.203346     0.362226     2.769648 H          1 UNL1 0.000
    30 H       0.265509     0.374040     2.722847 H          1 UNL1 0.000
    31 H       0.175465     0.673823    -1.579552 H          1 UNL1 0.000
    32 H      -2.292792     0.659069    -1.522100 H          1 UNL1 0.000
    33 C       1.868814     0.525687     0.541217 C          1 UNL1 0.000
    34 C       2.585769    -0.680303     0.541000 C          1 UNL1 0.000
    35 C       3.984246    -0.680780     0.533064 C          1 UNL1 0.000
    36 C       4.685341     0.528510     0.525918 C          1 UNL1 0.000
    37 C       3.981446     1.736239     0.520051 C          1 UNL1 0.000
    38 C       2.582972     1.732970     0.526529 C          1 UNL1 0.000
    39 C       6.118892     0.530252     0.529647 C          1 UNL1 0.000
    40 N       7.279645     0.531795     0.535576 N          1 UNL1 0.000
    41 H       2.052794    -1.629780     0.548993 H          1 UNL1 0.000
    42 H       4.517500    -1.629676     0.535749 H          1 UNL1 0.000
    43 H       4.512588     2.686280     0.514315 H          1 UNL1 0.000
    44 H       2.047844     2.681218     0.526664 H          1 UNL1 0.000
@<TRIPOS>BOND
     1      1      2   2
     2      2      3   1
     3      3      4   2
     4      4      5   1
     5      5      6   2
     6      6      1   1
     7      4      7   1
     8      7      8   1
     9      8      9   2
    10      9     10   1
    11     10     11   2
    12     11     12   1
    13     12     13   2
    14     13      8   1
    15      3     14   1
    16      9     14   1
    17     15     16   2
    18     16     17   1
    19     17     18   2
    20     18     19   1
    21     19     20   2
    22     20     15   1
    23      7     15   1
    24      1     21   1
    25      2     22   1
    26      5     23   1
    27      6     24   1
    28     10     25   1
    29     11     26   1
    30     12     27   1
    31     13     28   1
    32     16     29   1
    33     17     30   1
    34     19     31   1
    35     20     32   1
    36     33     34   2
    37     34     35   1
    38     35     36   2
    39     36     37   1
    40     37     38   2
    41     38     33   1
    42     39     40   3
    43     36     39   1
    44     34     41   1
    45     35     42   1
    46     37     43   1
    47     38     44   1
    48     18     33   1
