# Produced with molli package
@<TRIPOS>MOLECULE
I_1_Q
41 45 0 0 0
SMALL
USER_CHARGES

@<TRIPOS>ATOM
     1 C      -6.106711     4.160766     0.508739 C          1 UNL1 0.000
     2 C      -6.746954     2.924456     0.482696 C          1 UNL1 0.000
     3 C      -5.994726     1.745426     0.494355 C          1 UNL1 0.000
     4 C      -4.590991     1.778226     0.530730 C          1 UNL1 0.000
     5 C      -3.964777     3.036807     0.553142 C          1 UNL1 0.000
     6 C      -4.716168     4.216788     0.543881 C          1 UNL1 0.000
     7 N      -3.861291     0.544543     0.541515 N          1 UNL1 0.000
     8 C      -4.617049    -0.672811     0.528823 C          1 UNL1 0.000
     9 C      -6.019786    -0.609819     0.490600 C          1 UNL1 0.000
    10 C      -6.797226    -1.772299     0.477590 C          1 UNL1 0.000
    11 C      -6.183862    -3.022020     0.507087 C          1 UNL1 0.000
    12 C      -4.794966    -3.107939     0.549256 C          1 UNL1 0.000
    13 C      -4.018296    -1.944331     0.559671 C          1 UNL1 0.000
    14 O      -6.718673     0.575417     0.465268 O          1 UNL1 0.000
    15 C      -2.434641     0.531174     0.546201 C          1 UNL1 0.000
    16 C      -1.728448     0.592836     1.754092 C          1 UNL1 0.000
    17 C      -0.330773     0.597490     1.754723 C          1 UNL1 0.000
    18 C       0.388210     0.531409     0.550881 C          1 UNL1 0.000
    19 C      -0.326241     0.470267    -0.656108 C          1 UNL1 0.000
    20 C      -1.723889     0.470641    -0.659431 C          1 UNL1 0.000
    21 H      -6.690310     5.077458     0.501072 H          1 UNL1 0.000
    22 H      -7.831935     2.874462     0.453541 H          1 UNL1 0.000
    23 H      -2.881462     3.121113     0.579192 H          1 UNL1 0.000
    24 H      -4.210220     5.178936     0.564061 H          1 UNL1 0.000
    25 H      -7.880851    -1.698726     0.446240 H          1 UNL1 0.000
    26 H      -6.787453    -3.925722     0.499015 H          1 UNL1 0.000
    27 H      -4.310997    -4.081120     0.575463 H          1 UNL1 0.000
    28 H      -2.937660    -2.050654     0.596115 H          1 UNL1 0.000
    29 H      -2.270684     0.645988     2.695023 H          1 UNL1 0.000
    30 H       0.200083     0.660679     2.702890 H          1 UNL1 0.000
    31 H       0.205158     0.439937    -1.605510 H          1 UNL1 0.000
    32 H      -2.263392     0.434951    -1.602894 H          1 UNL1 0.000
    33 C       1.848892     0.531063     0.555695 C          1 UNL1 0.000
    34 N       2.452357     1.737939     0.700498 N          1 UNL1 0.000
    35 C       3.805484     1.723211     0.694525 C          1 UNL1 0.000
    36 C       4.537642     0.555848     0.558090 C          1 UNL1 0.000
    37 N       3.951652    -0.653769     0.418767 N          1 UNL1 0.000
    38 C       2.595233    -0.637450     0.419720 C          1 UNL1 0.000
    39 H       4.290503     2.686630     0.802324 H          1 UNL1 0.000
    40 H       5.621637     0.563407     0.557186 H          1 UNL1 0.000
    41 H       2.116742    -1.605051     0.311034 H          1 UNL1 0.000
@<TRIPOS>BOND
     1      1      2   2
     2      2      3   1
     3      3      4   2
     4      4      5   1
     5      5      6   2
     6      6      1   1
     7      4      7   1
     8      7      8   1
     9      8      9   2
    10      9     10   1
    11     10     11   2
    12     11     12   1
    13     12     13   2
    14     13      8   1
    15      3     14   1
    16      9     14   1
    17     15     16   2
    18     16     17   1
    19     17     18   2
    20     18     19   1
    21     19     20   2
    22     20     15   1
    23      7     15   1
    24      1     21   1
    25      2     22   1
    26      5     23   1
    27      6     24   1
    28     10     25   1
    29     11     26   1
    30     12     27   1
    31     13     28   1
    32     16     29   1
    33     17     30   1
    34     19     31   1
    35     20     32   1
    36     33     34   2
    37     34     35   1
    38     35     36   2
    39     36     37   1
    40     37     38   2
    41     38     33   1
    42     35     39   1
    43     36     40   1
    44     38     41   1
    45     18     33   1
