# Produced with molli package
@<TRIPOS>MOLECULE
I_1_P
47 51 0 0 0
SMALL
USER_CHARGES

@<TRIPOS>ATOM
     1 C      -6.086133     4.043837     0.593565 C          1 UNL1 0.000
     2 C      -6.704449     2.796116     0.602390 C          1 UNL1 0.000
     3 C      -5.930741     1.630813     0.593344 C          1 UNL1 0.000
     4 C      -4.527643     1.688756     0.575979 C          1 UNL1 0.000
     5 C      -3.923939     2.958508     0.563168 C          1 UNL1 0.000
     6 C      -4.696711     4.124913     0.573405 C          1 UNL1 0.000
     7 N      -3.775808     0.468325     0.567217 N          1 UNL1 0.000
     8 C      -4.509989    -0.762299     0.586897 C          1 UNL1 0.000
     9 C      -5.913723    -0.724436     0.601017 C          1 UNL1 0.000
    10 C      -6.670224    -1.900705     0.621244 C          1 UNL1 0.000
    11 C      -6.033529    -3.139168     0.631352 C          1 UNL1 0.000
    12 C      -4.642961    -3.200115     0.622227 C          1 UNL1 0.000
    13 C      -3.887447    -2.022822     0.600629 C          1 UNL1 0.000
    14 O      -6.634367     0.448034     0.599570 O          1 UNL1 0.000
    15 C      -2.349246     0.478145     0.545728 C          1 UNL1 0.000
    16 C      -1.623824     0.581312     1.739195 C          1 UNL1 0.000
    17 C      -0.227123     0.601483     1.715954 C          1 UNL1 0.000
    18 C       0.472281     0.515593     0.502289 C          1 UNL1 0.000
    19 C      -0.259902     0.404010    -0.689250 C          1 UNL1 0.000
    20 C      -1.657440     0.387592    -0.669139 C          1 UNL1 0.000
    21 H      -6.686528     4.949739     0.601063 H          1 UNL1 0.000
    22 H      -7.788525     2.726369     0.615954 H          1 UNL1 0.000
    23 H      -2.842482     3.061627     0.544299 H          1 UNL1 0.000
    24 H      -4.208397     5.096320     0.564861 H          1 UNL1 0.000
    25 H      -7.755222    -1.846682     0.631029 H          1 UNL1 0.000
    26 H      -6.620573    -4.053612     0.648549 H          1 UNL1 0.000
    27 H      -4.140262    -4.164086     0.633396 H          1 UNL1 0.000
    28 H      -2.804398    -2.109759     0.598210 H          1 UNL1 0.000
    29 H      -2.150306     0.647338     2.688070 H          1 UNL1 0.000
    30 H       0.317948     0.682894     2.654413 H          1 UNL1 0.000
    31 H       0.257713     0.342502    -1.644388 H          1 UNL1 0.000
    32 H      -2.211418     0.310617    -1.601483 H          1 UNL1 0.000
    33 C       1.936917     0.559059     0.482824 C          1 UNL1 0.000
    34 C       2.691731    -0.604783     0.265966 C          1 UNL1 0.000
    35 C       4.089227    -0.559438     0.259686 C          1 UNL1 0.000
    36 C       4.740354     0.656653     0.455185 C          1 UNL1 0.000
    37 C       4.010098     1.816443     0.695229 C          1 UNL1 0.000
    38 C       2.614874     1.769165     0.699591 C          1 UNL1 0.000
    39 O       6.104488     0.749402     0.491502 O          1 UNL1 0.000
    40 C       6.675534     0.454217    -0.782409 C          1 UNL1 0.000
    41 H       2.190185    -1.559202     0.118820 H          1 UNL1 0.000
    42 H       4.656742    -1.474758     0.122770 H          1 UNL1 0.000
    43 H       4.524815     2.756317     0.871955 H          1 UNL1 0.000
    44 H       2.053903     2.684905     0.874160 H          1 UNL1 0.000
    45 H       7.721772     0.774003    -0.760518 H          1 UNL1 0.000
    46 H       6.172445     1.004481    -1.586074 H          1 UNL1 0.000
    47 H       6.655068    -0.621743    -0.981999 H          1 UNL1 0.000
@<TRIPOS>BOND
     1      1      2   2
     2      2      3   1
     3      3      4   2
     4      4      5   1
     5      5      6   2
     6      6      1   1
     7      4      7   1
     8      7      8   1
     9      8      9   2
    10      9     10   1
    11     10     11   2
    12     11     12   1
    13     12     13   2
    14     13      8   1
    15      3     14   1
    16      9     14   1
    17     15     16   2
    18     16     17   1
    19     17     18   2
    20     18     19   1
    21     19     20   2
    22     20     15   1
    23      7     15   1
    24      1     21   1
    25      2     22   1
    26      5     23   1
    27      6     24   1
    28     10     25   1
    29     11     26   1
    30     12     27   1
    31     13     28   1
    32     16     29   1
    33     17     30   1
    34     19     31   1
    35     20     32   1
    36     33     34   2
    37     34     35   1
    38     35     36   2
    39     36     37   1
    40     37     38   2
    41     38     33   1
    42     39     40   1
    43     36     39   1
    44     34     41   1
    45     35     42   1
    46     37     43   1
    47     38     44   1
    48     40     45   1
    49     40     46   1
    50     40     47   1
    51     18     33   1
