# Produced with molli package
@<TRIPOS>MOLECULE
I_1_O
42 46 0 0 0
SMALL
USER_CHARGES

@<TRIPOS>ATOM
     1 C      -6.147861     4.040757     0.558354 C          1 UNL1 0.000
     2 C      -6.752878     2.786855     0.531979 C          1 UNL1 0.000
     3 C      -5.966890     1.630009     0.525966 C          1 UNL1 0.000
     4 C      -4.564180     1.702929     0.544459 C          1 UNL1 0.000
     5 C      -3.973824     2.978409     0.570904 C          1 UNL1 0.000
     6 C      -4.759086     4.136328     0.578225 C          1 UNL1 0.000
     7 N      -3.799841     0.490930     0.536575 N          1 UNL1 0.000
     8 C      -4.520635    -0.747577     0.516094 C          1 UNL1 0.000
     9 C      -5.924669    -0.724925     0.497768 C          1 UNL1 0.000
    10 C      -6.667922    -1.909525     0.475057 C          1 UNL1 0.000
    11 C      -6.017969    -3.141148     0.472670 C          1 UNL1 0.000
    12 C      -4.626838    -3.187080     0.492887 C          1 UNL1 0.000
    13 C      -3.884620    -2.001500     0.513932 C          1 UNL1 0.000
    14 O      -6.657638     0.439812     0.499402 O          1 UNL1 0.000
    15 C      -2.373376     0.514767     0.519377 C          1 UNL1 0.000
    16 C      -1.649288     0.509879     1.718427 C          1 UNL1 0.000
    17 C      -0.251660     0.514437     1.698310 C          1 UNL1 0.000
    18 C       0.448965     0.526653     0.481653 C          1 UNL1 0.000
    19 C      -0.283919     0.547971    -0.715139 C          1 UNL1 0.000
    20 C      -1.681097     0.537445    -0.698243 C          1 UNL1 0.000
    21 H      -6.757523     4.940357     0.563298 H          1 UNL1 0.000
    22 H      -7.836187     2.705776     0.515909 H          1 UNL1 0.000
    23 H      -2.892987     3.092666     0.586889 H          1 UNL1 0.000
    24 H      -4.280656     5.112453     0.599243 H          1 UNL1 0.000
    25 H      -7.753472    -1.867331     0.459194 H          1 UNL1 0.000
    26 H      -6.594939    -4.061913     0.455261 H          1 UNL1 0.000
    27 H      -4.113862    -4.145596     0.492066 H          1 UNL1 0.000
    28 H      -2.800788    -2.076400     0.529369 H          1 UNL1 0.000
    29 H      -2.177445     0.503981     2.668631 H          1 UNL1 0.000
    30 H       0.293663     0.519320     2.639883 H          1 UNL1 0.000
    31 H       0.238457     0.572800    -1.669528 H          1 UNL1 0.000
    32 H      -2.233582     0.547884    -1.634462 H          1 UNL1 0.000
    33 C       1.911921     0.507818     0.457775 C          1 UNL1 0.000
    34 N       2.514605     1.697423     0.218554 N          1 UNL1 0.000
    35 C       3.865212     1.711721     0.192435 C          1 UNL1 0.000
    36 C       4.653452     0.589303     0.384402 C          1 UNL1 0.000
    37 C       4.020152    -0.624511     0.620839 C          1 UNL1 0.000
    38 C       2.629360    -0.669159     0.661799 C          1 UNL1 0.000
    39 H       4.312395     2.684064     0.006364 H          1 UNL1 0.000
    40 H       5.734664     0.659974     0.349174 H          1 UNL1 0.000
    41 H       4.602393    -1.528983     0.771123 H          1 UNL1 0.000
    42 H       2.113961    -1.607176     0.841428 H          1 UNL1 0.000
@<TRIPOS>BOND
     1      1      2   2
     2      2      3   1
     3      3      4   2
     4      4      5   1
     5      5      6   2
     6      6      1   1
     7      4      7   1
     8      7      8   1
     9      8      9   2
    10      9     10   1
    11     10     11   2
    12     11     12   1
    13     12     13   2
    14     13      8   1
    15      3     14   1
    16      9     14   1
    17     15     16   2
    18     16     17   1
    19     17     18   2
    20     18     19   1
    21     19     20   2
    22     20     15   1
    23      7     15   1
    24      1     21   1
    25      2     22   1
    26      5     23   1
    27      6     24   1
    28     10     25   1
    29     11     26   1
    30     12     27   1
    31     13     28   1
    32     16     29   1
    33     17     30   1
    34     19     31   1
    35     20     32   1
    36     33     34   2
    37     34     35   1
    38     35     36   2
    39     36     37   1
    40     37     38   2
    41     38     33   1
    42     35     39   1
    43     36     40   1
    44     37     41   1
    45     38     42   1
    46     18     33   1
