# Produced with molli package
@<TRIPOS>MOLECULE
I_1_K
45 49 0 0 0
SMALL
USER_CHARGES

@<TRIPOS>ATOM
     1 C      -6.050825     4.074693     0.521639 C          1 UNL1 0.000
     2 C      -6.678555     2.831761     0.514965 C          1 UNL1 0.000
     3 C      -5.913902     1.660743     0.519547 C          1 UNL1 0.000
     4 C      -4.510140     1.708259     0.529462 C          1 UNL1 0.000
     5 C      -3.896713     2.973200     0.537032 C          1 UNL1 0.000
     6 C      -4.660533     4.145326     0.533080 C          1 UNL1 0.000
     7 N      -3.767676     0.482482     0.533970 N          1 UNL1 0.000
     8 C      -4.511020    -0.742922     0.531736 C          1 UNL1 0.000
     9 C      -5.914679    -0.694620     0.522455 C          1 UNL1 0.000
    10 C      -6.679925    -1.865279     0.519512 C          1 UNL1 0.000
    11 C      -6.052883    -3.108594     0.525986 C          1 UNL1 0.000
    12 C      -4.662655    -3.180024     0.534621 C          1 UNL1 0.000
    13 C      -3.898298    -2.008302     0.536939 C          1 UNL1 0.000
    14 O      -6.626216     0.483269     0.514363 O          1 UNL1 0.000
    15 C      -2.341061     0.481331     0.531896 C          1 UNL1 0.000
    16 C      -1.630385     0.451165     1.738502 C          1 UNL1 0.000
    17 C      -0.232972     0.443834     1.734596 C          1 UNL1 0.000
    18 C       0.479387     0.467327     0.526279 C          1 UNL1 0.000
    19 C      -0.237538     0.500022    -0.679107 C          1 UNL1 0.000
    20 C      -1.634803     0.506615    -0.677446 C          1 UNL1 0.000
    21 H      -6.644395     4.985078     0.518585 H          1 UNL1 0.000
    22 H      -7.763334     2.770279     0.506715 H          1 UNL1 0.000
    23 H      -2.814358     3.067902     0.547304 H          1 UNL1 0.000
    24 H      -4.165272     5.113168     0.539390 H          1 UNL1 0.000
    25 H      -7.764674    -1.803261     0.511972 H          1 UNL1 0.000
    26 H      -6.646918    -4.018672     0.523901 H          1 UNL1 0.000
    27 H      -4.167817    -4.148090     0.539342 H          1 UNL1 0.000
    28 H      -2.815978    -2.103767     0.542801 H          1 UNL1 0.000
    29 H      -2.169789     0.432312     2.682420 H          1 UNL1 0.000
    30 H       0.299294     0.419432     2.683373 H          1 UNL1 0.000
    31 H       0.291102     0.517750    -1.630064 H          1 UNL1 0.000
    32 H      -2.177650     0.529168    -1.619318 H          1 UNL1 0.000
    33 C       1.943571     0.454834     0.522472 C          1 UNL1 0.000
    34 C       2.668371     1.657537     0.497351 C          1 UNL1 0.000
    35 C       4.066327     1.651283     0.490088 C          1 UNL1 0.000
    36 C       4.748294     0.429011     0.509852 C          1 UNL1 0.000
    37 C       4.044323    -0.780626     0.536488 C          1 UNL1 0.000
    38 C       2.646556    -0.760982     0.541847 C          1 UNL1 0.000
    39 N       6.214756     0.415143     0.501985 N          1 UNL1 0.000
    40 O       6.781908    -0.652946     0.771474 O          1 UNL1 0.000
    41 O       6.798727     1.473192     0.225912 O          1 UNL1 0.000
    42 H       2.139933     2.609849     0.483812 H          1 UNL1 0.000
    43 H       4.601713     2.598331     0.471666 H          1 UNL1 0.000
    44 H       4.562230    -1.737370     0.549671 H          1 UNL1 0.000
    45 H       2.100850    -1.703473     0.559451 H          1 UNL1 0.000
@<TRIPOS>BOND
     1      1      2   2
     2      2      3   1
     3      3      4   2
     4      4      5   1
     5      5      6   2
     6      6      1   1
     7      4      7   1
     8      7      8   1
     9      8      9   2
    10      9     10   1
    11     10     11   2
    12     11     12   1
    13     12     13   2
    14     13      8   1
    15      3     14   1
    16      9     14   1
    17     15     16   2
    18     16     17   1
    19     17     18   2
    20     18     19   1
    21     19     20   2
    22     20     15   1
    23      7     15   1
    24      1     21   1
    25      2     22   1
    26      5     23   1
    27      6     24   1
    28     10     25   1
    29     11     26   1
    30     12     27   1
    31     13     28   1
    32     16     29   1
    33     17     30   1
    34     19     31   1
    35     20     32   1
    36     33     34   2
    37     34     35   1
    38     35     36   2
    39     36     37   1
    40     37     38   2
    41     38     33   1
    42     39     40   2
    43     39     41   1
    44     36     39   1
    45     34     42   1
    46     35     43   1
    47     37     44   1
    48     38     45   1
    49     18     33   1
