# Produced with molli package
@<TRIPOS>MOLECULE
I_1_L
47 52 0 0 0
SMALL
USER_CHARGES

@<TRIPOS>ATOM
     1 C      -6.090670     4.027302     0.421333 C          1 UNL1 0.000
     2 C      -6.678243     2.765362     0.426189 C          1 UNL1 0.000
     3 C      -5.876141     1.619672     0.407604 C          1 UNL1 0.000
     4 C      -4.473956     1.710607     0.388970 C          1 UNL1 0.000
     5 C      -3.901582     2.994122     0.378952 C          1 UNL1 0.000
     6 C      -4.703215     4.141468     0.395230 C          1 UNL1 0.000
     7 N      -3.694187     0.508173     0.379344 N          1 UNL1 0.000
     8 C      -4.401087    -0.739379     0.391946 C          1 UNL1 0.000
     9 C      -5.805337    -0.734028     0.400833 C          1 UNL1 0.000
    10 C      -6.534886    -1.927338     0.408386 C          1 UNL1 0.000
    11 C      -5.870646    -3.151088     0.412133 C          1 UNL1 0.000
    12 C      -4.479003    -3.180231     0.409826 C          1 UNL1 0.000
    13 C      -3.750691    -1.985916     0.399619 C          1 UNL1 0.000
    14 O      -6.552431     0.421181     0.407512 O          1 UNL1 0.000
    15 C      -2.267059     0.543404     0.393211 C          1 UNL1 0.000
    16 C      -1.572566     0.597219     1.608496 C          1 UNL1 0.000
    17 C      -0.175111     0.587895     1.624381 C          1 UNL1 0.000
    18 C       0.555911     0.525303     0.428404 C          1 UNL1 0.000
    19 C      -0.144326     0.481002    -0.786278 C          1 UNL1 0.000
    20 C      -1.542760     0.490933    -0.805027 C          1 UNL1 0.000
    21 H      -6.713080     4.918103     0.436204 H          1 UNL1 0.000
    22 H      -7.760365     2.668632     0.444482 H          1 UNL1 0.000
    23 H      -2.822800     3.122534     0.357307 H          1 UNL1 0.000
    24 H      -4.239500     5.124805     0.387654 H          1 UNL1 0.000
    25 H      -7.620977    -1.897955     0.412802 H          1 UNL1 0.000
    26 H      -6.436635    -4.078729     0.418729 H          1 UNL1 0.000
    27 H      -3.954241    -4.132341     0.416200 H          1 UNL1 0.000
    28 H      -2.665836    -2.049014     0.399414 H          1 UNL1 0.000
    29 H      -2.123645     0.633745     2.544874 H          1 UNL1 0.000
    30 H       0.345929     0.620513     2.579219 H          1 UNL1 0.000
    31 H       0.400126     0.433409    -1.727280 H          1 UNL1 0.000
    32 H      -2.071217     0.447810    -1.754156 H          1 UNL1 0.000
    33 C       2.021541     0.503356     0.453919 C          1 UNL1 0.000
    34 C       2.748679     1.700803     0.498836 C          1 UNL1 0.000
    35 C       4.148214     1.714058     0.544546 C          1 UNL1 0.000
    36 C       4.805690     0.480027     0.546666 C          1 UNL1 0.000
    37 C       4.124208    -0.735244     0.499441 C          1 UNL1 0.000
    38 C       2.715395    -0.721378     0.449822 C          1 UNL1 0.000
    39 N       6.150835     0.189083     0.593625 N          1 UNL1 0.000
    40 C       6.342357    -1.167280     0.578889 C          1 UNL1 0.000
    41 C       5.104634    -1.765984     0.519007 C          1 UNL1 0.000
    42 H       2.217404     2.651397     0.501372 H          1 UNL1 0.000
    43 H       4.693964     2.650904     0.581378 H          1 UNL1 0.000
    44 H       2.169231    -1.660424     0.417374 H          1 UNL1 0.000
    45 H       6.885417     0.881444     0.636282 H          1 UNL1 0.000
    46 H       7.338699    -1.587213     0.612920 H          1 UNL1 0.000
    47 H       4.920556    -2.832011     0.494872 H          1 UNL1 0.000
@<TRIPOS>BOND
     1      1      2   2
     2      2      3   1
     3      3      4   2
     4      4      5   1
     5      5      6   2
     6      6      1   1
     7      4      7   1
     8      7      8   1
     9      8      9   2
    10      9     10   1
    11     10     11   2
    12     11     12   1
    13     12     13   2
    14     13      8   1
    15      3     14   1
    16      9     14   1
    17     15     16   2
    18     16     17   1
    19     17     18   2
    20     18     19   1
    21     19     20   2
    22     20     15   1
    23      7     15   1
    24      1     21   1
    25      2     22   1
    26      5     23   1
    27      6     24   1
    28     10     25   1
    29     11     26   1
    30     12     27   1
    31     13     28   1
    32     16     29   1
    33     17     30   1
    34     19     31   1
    35     20     32   1
    36     33     34   2
    37     34     35   1
    38     35     36   2
    39     36     37   1
    40     37     38   2
    41     38     33   1
    42     36     39   1
    43     39     40   1
    44     40     41   2
    45     41     37   1
    46     34     42   1
    47     35     43   1
    48     38     44   1
    49     39     45   1
    50     40     46   1
    51     41     47   1
    52     18     33   1
