# Produced with molli package
@<TRIPOS>MOLECULE
I_1_R
44 48 0 0 0
SMALL
USER_CHARGES

@<TRIPOS>ATOM
     1 C      -6.091475     3.984593     0.601775 C          1 UNL1 0.000
     2 C      -6.686950     2.726568     0.561844 C          1 UNL1 0.000
     3 C      -5.892727     1.575763     0.524479 C          1 UNL1 0.000
     4 C      -4.490720     1.658326     0.529103 C          1 UNL1 0.000
     5 C      -3.910581     2.938860     0.560788 C          1 UNL1 0.000
     6 C      -4.703679     4.090715     0.599804 C          1 UNL1 0.000
     7 N      -3.716832     0.451811     0.488243 N          1 UNL1 0.000
     8 C      -4.430322    -0.791259     0.449581 C          1 UNL1 0.000
     9 C      -5.834896    -0.777119     0.441633 C          1 UNL1 0.000
    10 C      -6.571990    -1.965277     0.404676 C          1 UNL1 0.000
    11 C      -5.915535    -3.192944     0.381348 C          1 UNL1 0.000
    12 C      -4.524169    -3.231145     0.398407 C          1 UNL1 0.000
    13 C      -3.788026    -2.041861     0.434088 C          1 UNL1 0.000
    14 O      -6.575463     0.382158     0.475785 O          1 UNL1 0.000
    15 C      -2.289996     0.488173     0.477052 C          1 UNL1 0.000
    16 C      -1.576281     0.682997     1.666316 C          1 UNL1 0.000
    17 C      -0.179457     0.734726     1.652216 C          1 UNL1 0.000
    18 C       0.535358     0.585517     0.451958 C          1 UNL1 0.000
    19 C      -0.187614     0.371594    -0.732436 C          1 UNL1 0.000
    20 C      -1.584953     0.330845    -0.722983 C          1 UNL1 0.000
    21 H      -6.708163     4.878988     0.630233 H          1 UNL1 0.000
    22 H      -7.769834     2.637399     0.557240 H          1 UNL1 0.000
    23 H      -2.831435     3.062882     0.551703 H          1 UNL1 0.000
    24 H      -4.233089     5.070418     0.625889 H          1 UNL1 0.000
    25 H      -7.657880    -1.929016     0.396864 H          1 UNL1 0.000
    26 H      -6.487330    -4.116704     0.353868 H          1 UNL1 0.000
    27 H      -4.005692    -4.186773     0.386006 H          1 UNL1 0.000
    28 H      -2.703796    -2.113317     0.454322 H          1 UNL1 0.000
    29 H      -2.112730     0.788559     2.606297 H          1 UNL1 0.000
    30 H       0.350605     0.874525     2.592152 H          1 UNL1 0.000
    31 H       0.341499     0.240003    -1.674635 H          1 UNL1 0.000
    32 H      -2.127327     0.176985    -1.652787 H          1 UNL1 0.000
    33 C       1.999363     0.652777     0.431932 C          1 UNL1 0.000
    34 N       2.639329    -0.474169     0.026682 N          1 UNL1 0.000
    35 C       3.996297    -0.460934     0.016333 C          1 UNL1 0.000
    36 C       4.744354     0.646560     0.380591 C          1 UNL1 0.000
    37 C       4.082666     1.808744     0.778041 C          1 UNL1 0.000
    38 C       2.687928     1.807669     0.807337 C          1 UNL1 0.000
    39 N       6.197663     0.584624     0.347307 N          1 UNL1 0.000
    40 O       6.823387     1.565431     0.773016 O          1 UNL1 0.000
    41 O       6.721414    -0.443549    -0.102955 O          1 UNL1 0.000
    42 H       4.451360    -1.396809    -0.298910 H          1 UNL1 0.000
    43 H       4.626374     2.706349     1.062508 H          1 UNL1 0.000
    44 H       2.146578     2.700306     1.108209 H          1 UNL1 0.000
@<TRIPOS>BOND
     1      1      2   2
     2      2      3   1
     3      3      4   2
     4      4      5   1
     5      5      6   2
     6      6      1   1
     7      4      7   1
     8      7      8   1
     9      8      9   2
    10      9     10   1
    11     10     11   2
    12     11     12   1
    13     12     13   2
    14     13      8   1
    15      3     14   1
    16      9     14   1
    17     15     16   2
    18     16     17   1
    19     17     18   2
    20     18     19   1
    21     19     20   2
    22     20     15   1
    23      7     15   1
    24      1     21   1
    25      2     22   1
    26      5     23   1
    27      6     24   1
    28     10     25   1
    29     11     26   1
    30     12     27   1
    31     13     28   1
    32     16     29   1
    33     17     30   1
    34     19     31   1
    35     20     32   1
    36     33     34   2
    37     34     35   1
    38     35     36   2
    39     36     37   1
    40     37     38   2
    41     38     33   1
    42     39     40   2
    43     39     41   1
    44     36     39   1
    45     35     42   1
    46     37     43   1
    47     38     44   1
    48     18     33   1
