# Produced with molli package
@<TRIPOS>MOLECULE
I_1_N
40 44 0 0 0
SMALL
USER_CHARGES

@<TRIPOS>ATOM
     1 C      -6.056897     4.036653     0.488907 C          1 UNL1 0.000
     2 C      -6.677714     2.790679     0.519134 C          1 UNL1 0.000
     3 C      -5.907049     1.623760     0.528126 C          1 UNL1 0.000
     4 C      -4.503453     1.678515     0.508096 C          1 UNL1 0.000
     5 C      -3.897087     2.946393     0.476670 C          1 UNL1 0.000
     6 C      -4.666931     4.114394     0.467349 C          1 UNL1 0.000
     7 N      -3.754671     0.456754     0.518263 N          1 UNL1 0.000
     8 C      -4.490983    -0.772349     0.545985 C          1 UNL1 0.000
     9 C      -5.895046    -0.731371     0.564105 C          1 UNL1 0.000
    10 C      -6.653682    -1.905851     0.592144 C          1 UNL1 0.000
    11 C      -6.020096    -3.145720     0.602482 C          1 UNL1 0.000
    12 C      -4.629393    -3.209833     0.585244 C          1 UNL1 0.000
    13 C      -3.871611    -2.034290     0.557664 C          1 UNL1 0.000
    14 O      -6.612788     0.442726     0.556923 O          1 UNL1 0.000
    15 C      -2.327631     0.463493     0.506507 C          1 UNL1 0.000
    16 C      -1.610305     0.510672     1.710493 C          1 UNL1 0.000
    17 C      -0.213568     0.517703     1.699919 C          1 UNL1 0.000
    18 C       0.477406     0.470304     0.484453 C          1 UNL1 0.000
    19 C      -0.232926     0.424724    -0.720371 C          1 UNL1 0.000
    20 C      -1.629601     0.422598    -0.708815 C          1 UNL1 0.000
    21 H      -6.655118     4.943860     0.481602 H          1 UNL1 0.000
    22 H      -7.762180     2.723608     0.535381 H          1 UNL1 0.000
    23 H      -2.815162     3.046716     0.457943 H          1 UNL1 0.000
    24 H      -4.176785     5.084493     0.442784 H          1 UNL1 0.000
    25 H      -7.738782    -1.849477     0.606134 H          1 UNL1 0.000
    26 H      -6.608928    -4.058817     0.624310 H          1 UNL1 0.000
    27 H      -4.129229    -4.175095     0.593566 H          1 UNL1 0.000
    28 H      -2.788668    -2.124134     0.545816 H          1 UNL1 0.000
    29 H      -2.145134     0.540462     2.656678 H          1 UNL1 0.000
    30 H       0.328346     0.551612     2.642124 H          1 UNL1 0.000
    31 H       0.293947     0.397955    -1.671318 H          1 UNL1 0.000
    32 H      -2.179198     0.390570    -1.646412 H          1 UNL1 0.000
    33 C       1.928530     0.480255     0.475328 C          1 UNL1 0.000
    34 C       2.652667    -0.662580     0.201166 C          1 UNL1 0.000
    35 S       4.341970    -0.388447     0.257899 S          1 UNL1 0.000
    36 C       4.116608     1.261351     0.650418 C          1 UNL1 0.000
    37 C       2.782666     1.594231     0.741514 C          1 UNL1 0.000
    38 H       2.277116    -1.651472    -0.025866 H          1 UNL1 0.000
    39 H       4.971935     1.906675     0.795956 H          1 UNL1 0.000
    40 H       2.435072     2.592325     0.979316 H          1 UNL1 0.000
@<TRIPOS>BOND
     1      1      2   2
     2      2      3   1
     3      3      4   2
     4      4      5   1
     5      5      6   2
     6      6      1   1
     7      4      7   1
     8      7      8   1
     9      8      9   2
    10      9     10   1
    11     10     11   2
    12     11     12   1
    13     12     13   2
    14     13      8   1
    15      3     14   1
    16      9     14   1
    17     15     16   2
    18     16     17   1
    19     17     18   2
    20     18     19   1
    21     19     20   2
    22     20     15   1
    23      7     15   1
    24      1     21   1
    25      2     22   1
    26      5     23   1
    27      6     24   1
    28     10     25   1
    29     11     26   1
    30     12     27   1
    31     13     28   1
    32     16     29   1
    33     17     30   1
    34     19     31   1
    35     20     32   1
    36     33     34   2
    37     34     35   1
    38     35     36   1
    39     36     37   2
    40     37     33   1
    41     34     38   1
    42     36     39   1
    43     37     40   1
    44     18     33   1
