# Produced with molli package
@<TRIPOS>MOLECULE
I_2_S
48 52 0 0 0
SMALL
USER_CHARGES

@<TRIPOS>ATOM
     1 C      -3.959318     4.125794     1.925876 C          1 UNL1 0.000
     2 C      -4.577475     2.881042     1.838917 C          1 UNL1 0.000
     3 C      -3.804724     1.716156     1.798702 C          1 UNL1 0.000
     4 C      -2.402102     1.772264     1.838462 C          1 UNL1 0.000
     5 C      -1.798681     3.038617     1.933238 C          1 UNL1 0.000
     6 C      -2.570427     4.204461     1.975210 C          1 UNL1 0.000
     7 N      -1.650376     0.553450     1.774138 N          1 UNL1 0.000
     8 C      -2.385545    -0.676597     1.740193 C          1 UNL1 0.000
     9 C      -3.788830    -0.636980     1.710981 C          1 UNL1 0.000
    10 C      -4.546053    -1.812340     1.678193 C          1 UNL1 0.000
    11 C      -3.911217    -3.051753     1.681560 C          1 UNL1 0.000
    12 C      -2.521014    -3.114641     1.717125 C          1 UNL1 0.000
    13 C      -1.764840    -1.938112     1.746127 C          1 UNL1 0.000
    14 O      -4.507836     0.536276     1.713381 O          1 UNL1 0.000
    15 C      -0.217942     0.564376     1.703862 C          1 UNL1 0.000
    16 C       0.514505     0.582315     2.906176 C          1 UNL1 0.000
    17 C       1.908027     0.578034     2.890878 C          1 UNL1 0.000
    18 C       2.586855     0.554127     1.676250 C          1 UNL1 0.000
    19 C       1.873741     0.535894     0.475196 C          1 UNL1 0.000
    20 C       0.466818     0.542186     0.463260 C          1 UNL1 0.000
    21 H      -4.559577     5.031303     1.954953 H          1 UNL1 0.000
    22 H      -5.661201     2.813488     1.800322 H          1 UNL1 0.000
    23 H      -0.717540     3.139098     1.971346 H          1 UNL1 0.000
    24 H      -2.082795     5.173687     2.044347 H          1 UNL1 0.000
    25 H      -5.630892    -1.756450     1.654003 H          1 UNL1 0.000
    26 H      -4.499723    -3.965127     1.660794 H          1 UNL1 0.000
    27 H      -2.020319    -4.079521     1.726491 H          1 UNL1 0.000
    28 H      -0.682507    -2.025400     1.780221 H          1 UNL1 0.000
    29 H      -0.014730     0.596681     3.856376 H          1 UNL1 0.000
    30 H       2.461745     0.592509     3.826066 H          1 UNL1 0.000
    31 H       3.674023     0.551564     1.660647 H          1 UNL1 0.000
    32 H       2.423250     0.522518    -0.464597 H          1 UNL1 0.000
    33 C      -0.236868     0.526950    -0.828446 C          1 UNL1 0.000
    34 C      -0.764885     1.704914    -1.374257 C          1 UNL1 0.000
    35 C      -1.437727     1.689209    -2.599421 C          1 UNL1 0.000
    36 C      -1.588082     0.493237    -3.310615 C          1 UNL1 0.000
    37 C      -1.052159    -0.686131    -2.782851 C          1 UNL1 0.000
    38 C      -0.383749    -0.665852    -1.552307 C          1 UNL1 0.000
    39 C      -2.312943     0.530438    -4.616217 C          1 UNL1 0.000
    40 C      -2.525633    -0.754920    -5.372541 C          1 UNL1 0.000
    41 O      -2.707818     1.602698    -5.069489 O          1 UNL1 0.000
    42 H      -0.662188     2.648275    -0.842600 H          1 UNL1 0.000
    43 H      -1.846422     2.618610    -2.992013 H          1 UNL1 0.000
    44 H      -1.139497    -1.635566    -3.301821 H          1 UNL1 0.000
    45 H       0.016865    -1.594965    -1.151092 H          1 UNL1 0.000
    46 H      -3.221438    -0.572912    -6.197801 H          1 UNL1 0.000
    47 H      -2.973655    -1.515759    -4.728730 H          1 UNL1 0.000
    48 H      -1.576705    -1.103675    -5.787800 H          1 UNL1 0.000
@<TRIPOS>BOND
     1      1      2   2
     2      2      3   1
     3      3      4   2
     4      4      5   1
     5      5      6   2
     6      6      1   1
     7      4      7   1
     8      7      8   1
     9      8      9   2
    10      9     10   1
    11     10     11   2
    12     11     12   1
    13     12     13   2
    14     13      8   1
    15      3     14   1
    16      9     14   1
    17     15     16   2
    18     16     17   1
    19     17     18   2
    20     18     19   1
    21     19     20   2
    22     20     15   1
    23      7     15   1
    24      1     21   1
    25      2     22   1
    26      5     23   1
    27      6     24   1
    28     10     25   1
    29     11     26   1
    30     12     27   1
    31     13     28   1
    32     16     29   1
    33     17     30   1
    34     18     31   1
    35     19     32   1
    36     33     34   2
    37     34     35   1
    38     35     36   2
    39     36     37   1
    40     37     38   2
    41     38     33   1
    42     36     39   1
    43     39     40   1
    44     39     41   2
    45     34     42   1
    46     35     43   1
    47     37     44   1
    48     38     45   1
    49     40     46   1
    50     40     47   1
    51     40     48   1
    52     20     33   1
