# Produced with molli package
@<TRIPOS>MOLECULE
I_2_M
44 48 0 0 0
SMALL
USER_CHARGES

@<TRIPOS>ATOM
     1 C      -3.974502     4.080215     1.887924 C          1 UNL1 0.000
     2 C      -4.593320     2.833179     1.849527 C          1 UNL1 0.000
     3 C      -3.821121     1.667260     1.846375 C          1 UNL1 0.000
     4 C      -2.418632     1.724774     1.871627 C          1 UNL1 0.000
     5 C      -1.814584     2.993477     1.923617 C          1 UNL1 0.000
     6 C      -2.585500     4.160333     1.929036 C          1 UNL1 0.000
     7 N      -1.666385     0.504940     1.839728 N          1 UNL1 0.000
     8 C      -2.400311    -0.725912     1.859172 C          1 UNL1 0.000
     9 C      -3.804341    -0.687519     1.850327 C          1 UNL1 0.000
    10 C      -4.561615    -1.862985     1.874666 C          1 UNL1 0.000
    11 C      -3.926075    -3.101327     1.912155 C          1 UNL1 0.000
    12 C      -2.535269    -3.162934     1.922273 C          1 UNL1 0.000
    13 C      -1.778813    -1.986275     1.895132 C          1 UNL1 0.000
    14 O      -4.524189     0.484930     1.814654 O          1 UNL1 0.000
    15 C      -0.235520     0.518672     1.745150 C          1 UNL1 0.000
    16 C       0.518159     0.518043     2.934141 C          1 UNL1 0.000
    17 C       1.911070     0.540119     2.893565 C          1 UNL1 0.000
    18 C       2.567877     0.563292     1.666742 C          1 UNL1 0.000
    19 C       1.833497     0.559752     0.478524 C          1 UNL1 0.000
    20 C       0.427027     0.536084     0.492623 C          1 UNL1 0.000
    21 H      -4.574593     4.986310     1.889725 H          1 UNL1 0.000
    22 H      -5.677365     2.764478     1.822322 H          1 UNL1 0.000
    23 H      -0.733251     3.094164     1.957946 H          1 UNL1 0.000
    24 H      -2.097175     5.130972     1.965523 H          1 UNL1 0.000
    25 H      -5.646787    -1.808256     1.866936 H          1 UNL1 0.000
    26 H      -4.514354    -4.014895     1.935085 H          1 UNL1 0.000
    27 H      -2.034484    -4.127370     1.954522 H          1 UNL1 0.000
    28 H      -0.696001    -2.072982     1.908669 H          1 UNL1 0.000
    29 H       0.006318     0.501260     3.893783 H          1 UNL1 0.000
    30 H       2.481661     0.540588     3.818713 H          1 UNL1 0.000
    31 H       3.654447     0.583603     1.631806 H          1 UNL1 0.000
    32 H       2.365695     0.577819    -0.471092 H          1 UNL1 0.000
    33 C      -0.300151     0.522634    -0.785482 C          1 UNL1 0.000
    34 C      -0.796173     1.709468    -1.346016 C          1 UNL1 0.000
    35 C      -1.494899     1.694251    -2.556801 C          1 UNL1 0.000
    36 C      -1.697839     0.488421    -3.232450 C          1 UNL1 0.000
    37 C      -1.198311    -0.699683    -2.692153 C          1 UNL1 0.000
    38 C      -0.504615    -0.680612    -1.478117 C          1 UNL1 0.000
    39 C      -2.411477     0.471156    -4.475696 C          1 UNL1 0.000
    40 N      -2.983268     0.458174    -5.485532 N          1 UNL1 0.000
    41 H      -0.648548     2.657376    -0.832889 H          1 UNL1 0.000
    42 H      -1.880002     2.628256    -2.961144 H          1 UNL1 0.000
    43 H      -1.348286    -1.647304    -3.205551 H          1 UNL1 0.000
    44 H      -0.130398    -1.615496    -1.065240 H          1 UNL1 0.000
@<TRIPOS>BOND
     1      1      2   2
     2      2      3   1
     3      3      4   2
     4      4      5   1
     5      5      6   2
     6      6      1   1
     7      4      7   1
     8      7      8   1
     9      8      9   2
    10      9     10   1
    11     10     11   2
    12     11     12   1
    13     12     13   2
    14     13      8   1
    15      3     14   1
    16      9     14   1
    17     15     16   2
    18     16     17   1
    19     17     18   2
    20     18     19   1
    21     19     20   2
    22     20     15   1
    23      7     15   1
    24      1     21   1
    25      2     22   1
    26      5     23   1
    27      6     24   1
    28     10     25   1
    29     11     26   1
    30     12     27   1
    31     13     28   1
    32     16     29   1
    33     17     30   1
    34     18     31   1
    35     19     32   1
    36     33     34   2
    37     34     35   1
    38     35     36   2
    39     36     37   1
    40     37     38   2
    41     38     33   1
    42     39     40   3
    43     36     39   1
    44     34     41   1
    45     35     42   1
    46     37     43   1
    47     38     44   1
    48     20     33   1
