# Produced with molli package
@<TRIPOS>MOLECULE
I_2_P
47 51 0 0 0
SMALL
USER_CHARGES

@<TRIPOS>ATOM
     1 C      -3.999159     4.059961     2.043406 C          1 UNL1 0.000
     2 C      -4.609726     2.811485     1.957756 C          1 UNL1 0.000
     3 C      -3.830035     1.654029     1.867959 C          1 UNL1 0.000
     4 C      -2.427210     1.721156     1.858483 C          1 UNL1 0.000
     5 C      -1.831347     2.991733     1.944736 C          1 UNL1 0.000
     6 C      -2.609884     4.150033     2.037250 C          1 UNL1 0.000
     7 N      -1.668484     0.508936     1.760985 N          1 UNL1 0.000
     8 C      -2.394828    -0.726320     1.732554 C          1 UNL1 0.000
     9 C      -3.799056    -0.697304     1.743468 C          1 UNL1 0.000
    10 C      -4.548156    -1.877760     1.711956 C          1 UNL1 0.000
    11 C      -3.904845    -3.112068     1.675913 C          1 UNL1 0.000
    12 C      -2.513590    -3.164748     1.673856 C          1 UNL1 0.000
    13 C      -1.765779    -1.983072     1.703879 C          1 UNL1 0.000
    14 O      -4.526444     0.469926     1.789425 O          1 UNL1 0.000
    15 C      -0.236273     0.533137     1.693430 C          1 UNL1 0.000
    16 C       0.492752     0.568101     2.897889 C          1 UNL1 0.000
    17 C       1.886147     0.595874     2.887480 C          1 UNL1 0.000
    18 C       2.568985     0.590611     1.675186 C          1 UNL1 0.000
    19 C       1.859679     0.551646     0.472577 C          1 UNL1 0.000
    20 C       0.452769     0.519413     0.456232 C          1 UNL1 0.000
    21 H      -4.605048     4.959124     2.114826 H          1 UNL1 0.000
    22 H      -5.693644     2.734334     1.961105 H          1 UNL1 0.000
    23 H      -0.750258     3.100954     1.941193 H          1 UNL1 0.000
    24 H      -2.127464     5.121801     2.104732 H          1 UNL1 0.000
    25 H      -5.633691    -1.829886     1.716483 H          1 UNL1 0.000
    26 H      -4.486739    -4.029346     1.651085 H          1 UNL1 0.000
    27 H      -2.005864    -4.125486     1.648648 H          1 UNL1 0.000
    28 H      -0.682239    -2.062475     1.704444 H          1 UNL1 0.000
    29 H      -0.039760     0.570862     3.846348 H          1 UNL1 0.000
    30 H       2.436087     0.621116     3.824524 H          1 UNL1 0.000
    31 H       3.655837     0.613978     1.662316 H          1 UNL1 0.000
    32 H       2.411045     0.545513    -0.466253 H          1 UNL1 0.000
    33 C      -0.241209     0.457522    -0.838784 C          1 UNL1 0.000
    34 C      -0.744303     1.617033    -1.449051 C          1 UNL1 0.000
    35 C      -1.385157     1.552814    -2.690346 C          1 UNL1 0.000
    36 C      -1.515320     0.326226    -3.338295 C          1 UNL1 0.000
    37 C      -1.049567    -0.838051    -2.735416 C          1 UNL1 0.000
    38 C      -0.402880    -0.770419    -1.499933 C          1 UNL1 0.000
    39 O      -2.151028     0.195420    -4.542717 O          1 UNL1 0.000
    40 C      -1.507447     0.955464    -5.563976 C          1 UNL1 0.000
    41 H      -0.648951     2.579296    -0.951431 H          1 UNL1 0.000
    42 H      -1.794228     2.458161    -3.127225 H          1 UNL1 0.000
    43 H      -1.182766    -1.796288    -3.228585 H          1 UNL1 0.000
    44 H      -0.034148    -1.686878    -1.045449 H          1 UNL1 0.000
    45 H      -1.907905     0.625183    -6.527304 H          1 UNL1 0.000
    46 H      -0.425287     0.780436    -5.572535 H          1 UNL1 0.000
    47 H      -1.724357     2.022880    -5.458080 H          1 UNL1 0.000
@<TRIPOS>BOND
     1      1      2   2
     2      2      3   1
     3      3      4   2
     4      4      5   1
     5      5      6   2
     6      6      1   1
     7      4      7   1
     8      7      8   1
     9      8      9   2
    10      9     10   1
    11     10     11   2
    12     11     12   1
    13     12     13   2
    14     13      8   1
    15      3     14   1
    16      9     14   1
    17     15     16   2
    18     16     17   1
    19     17     18   2
    20     18     19   1
    21     19     20   2
    22     20     15   1
    23      7     15   1
    24      1     21   1
    25      2     22   1
    26      5     23   1
    27      6     24   1
    28     10     25   1
    29     11     26   1
    30     12     27   1
    31     13     28   1
    32     16     29   1
    33     17     30   1
    34     18     31   1
    35     19     32   1
    36     33     34   2
    37     34     35   1
    38     35     36   2
    39     36     37   1
    40     37     38   2
    41     38     33   1
    42     39     40   1
    43     36     39   1
    44     34     41   1
    45     35     42   1
    46     37     43   1
    47     38     44   1
    48     40     45   1
    49     40     46   1
    50     40     47   1
    51     20     33   1
