# Produced with molli package
@<TRIPOS>MOLECULE
I_2_O
42 46 0 0 0
SMALL
USER_CHARGES

@<TRIPOS>ATOM
     1 C      -3.962341     4.142213     1.889150 C          1 UNL1 0.000
     2 C      -4.597760     2.903256     1.883448 C          1 UNL1 0.000
     3 C      -3.840747     1.727548     1.859364 C          1 UNL1 0.000
     4 C      -2.437064     1.766470     1.835884 C          1 UNL1 0.000
     5 C      -1.815641     3.027428     1.849987 C          1 UNL1 0.000
     6 C      -2.571673     4.204238     1.874649 C          1 UNL1 0.000
     7 N      -1.702958     0.536660     1.800074 N          1 UNL1 0.000
     8 C      -2.454945    -0.684380     1.805886 C          1 UNL1 0.000
     9 C      -3.857433    -0.627417     1.843055 C          1 UNL1 0.000
    10 C      -4.630478    -1.793408     1.856426 C          1 UNL1 0.000
    11 C      -4.012375    -3.040988     1.830012 C          1 UNL1 0.000
    12 C      -2.623498    -3.120865     1.786511 C          1 UNL1 0.000
    13 C      -1.852219    -1.953816     1.773788 C          1 UNL1 0.000
    14 O      -4.561266     0.555090     1.864582 O          1 UNL1 0.000
    15 C      -0.269879     0.523267     1.737086 C          1 UNL1 0.000
    16 C       0.455043     0.480448     2.943755 C          1 UNL1 0.000
    17 C       1.848898     0.470165     2.937674 C          1 UNL1 0.000
    18 C       2.536237     0.500393     1.727939 C          1 UNL1 0.000
    19 C       1.830485     0.542888     0.523171 C          1 UNL1 0.000
    20 C       0.423015     0.557254     0.503239 C          1 UNL1 0.000
    21 H      -4.550572     5.055706     1.908335 H          1 UNL1 0.000
    22 H      -5.682693     2.847424     1.898658 H          1 UNL1 0.000
    23 H      -0.732884     3.114076     1.843975 H          1 UNL1 0.000
    24 H      -2.070439     5.168773     1.884417 H          1 UNL1 0.000
    25 H      -5.714121    -1.724047     1.884416 H          1 UNL1 0.000
    26 H      -4.611346    -3.947395     1.836929 H          1 UNL1 0.000
    27 H      -2.132871    -4.090250     1.754576 H          1 UNL1 0.000
    28 H      -0.771526    -2.054508     1.721160 H          1 UNL1 0.000
    29 H      -0.081024     0.451913     3.889708 H          1 UNL1 0.000
    30 H       2.395714     0.432627     3.876145 H          1 UNL1 0.000
    31 H       3.623222     0.484100     1.718835 H          1 UNL1 0.000
    32 H       2.382959     0.552847    -0.414808 H          1 UNL1 0.000
    33 C      -0.278831     0.613052    -0.782610 C          1 UNL1 0.000
    34 N      -0.751427    -0.567032    -1.252944 N          1 UNL1 0.000
    35 C      -1.433866    -0.539531    -2.417494 C          1 UNL1 0.000
    36 C      -1.639998     0.607656    -3.165239 C          1 UNL1 0.000
    37 C      -1.119436     1.803985    -2.688336 C          1 UNL1 0.000
    38 C      -0.430114     1.810846    -1.479217 C          1 UNL1 0.000
    39 H      -1.826629    -1.498202    -2.743262 H          1 UNL1 0.000
    40 H      -2.195787     0.569262    -4.094947 H          1 UNL1 0.000
    41 H      -1.257687     2.725627    -3.245588 H          1 UNL1 0.000
    42 H      -0.029598     2.736923    -1.080804 H          1 UNL1 0.000
@<TRIPOS>BOND
     1      1      2   2
     2      2      3   1
     3      3      4   2
     4      4      5   1
     5      5      6   2
     6      6      1   1
     7      4      7   1
     8      7      8   1
     9      8      9   2
    10      9     10   1
    11     10     11   2
    12     11     12   1
    13     12     13   2
    14     13      8   1
    15      3     14   1
    16      9     14   1
    17     15     16   2
    18     16     17   1
    19     17     18   2
    20     18     19   1
    21     19     20   2
    22     20     15   1
    23      7     15   1
    24      1     21   1
    25      2     22   1
    26      5     23   1
    27      6     24   1
    28     10     25   1
    29     11     26   1
    30     12     27   1
    31     13     28   1
    32     16     29   1
    33     17     30   1
    34     18     31   1
    35     19     32   1
    36     33     34   2
    37     34     35   1
    38     35     36   2
    39     36     37   1
    40     37     38   2
    41     38     33   1
    42     35     39   1
    43     36     40   1
    44     37     41   1
    45     38     42   1
    46     20     33   1
