# Produced with molli package
@<TRIPOS>MOLECULE
I_2_K
45 49 0 0 0
SMALL
USER_CHARGES

@<TRIPOS>ATOM
     1 C      -3.914726     4.196317     1.772709 C          1 UNL1 0.000
     2 C      -4.556634     2.961852     1.716646 C          1 UNL1 0.000
     3 C      -3.807319     1.781197     1.731316 C          1 UNL1 0.000
     4 C      -2.404829     1.810793     1.795664 C          1 UNL1 0.000
     5 C      -1.777084     3.067369     1.855759 C          1 UNL1 0.000
     6 C      -2.525508     4.249044     1.844102 C          1 UNL1 0.000
     7 N      -1.677561     0.575650     1.795590 N          1 UNL1 0.000
     8 C      -2.437223    -0.639865     1.795896 C          1 UNL1 0.000
     9 C      -3.838432    -0.573450     1.732415 C          1 UNL1 0.000
    10 C      -4.618680    -1.733932     1.723123 C          1 UNL1 0.000
    11 C      -4.009551    -2.984646     1.784837 C          1 UNL1 0.000
    12 C      -2.622207    -3.073712     1.857042 C          1 UNL1 0.000
    13 C      -1.842878    -1.912152     1.863493 C          1 UNL1 0.000
    14 O      -4.532673     0.613229     1.674100 O          1 UNL1 0.000
    15 C      -0.244753     0.556498     1.739128 C          1 UNL1 0.000
    16 C       0.478942     0.589586     2.945775 C          1 UNL1 0.000
    17 C       1.872529     0.569335     2.939736 C          1 UNL1 0.000
    18 C       2.559566     0.515323     1.730391 C          1 UNL1 0.000
    19 C       1.854882     0.480778     0.524895 C          1 UNL1 0.000
    20 C       0.448718     0.500595     0.504670 C          1 UNL1 0.000
    21 H      -4.497018     5.113969     1.763277 H          1 UNL1 0.000
    22 H      -5.640861     2.914404     1.662727 H          1 UNL1 0.000
    23 H      -0.695161     3.147477     1.914431 H          1 UNL1 0.000
    24 H      -2.019739     5.210242     1.892605 H          1 UNL1 0.000
    25 H      -5.701309    -1.658242     1.669808 H          1 UNL1 0.000
    26 H      -4.615909    -3.886604     1.779884 H          1 UNL1 0.000
    27 H      -2.142168    -4.047672     1.911046 H          1 UNL1 0.000
    28 H      -0.763644    -2.019918     1.926312 H          1 UNL1 0.000
    29 H      -0.056333     0.630007     3.891818 H          1 UNL1 0.000
    30 H       2.420326     0.595253     3.878245 H          1 UNL1 0.000
    31 H       3.646790     0.499918     1.722849 H          1 UNL1 0.000
    32 H       2.410461     0.439620    -0.410455 H          1 UNL1 0.000
    33 C      -0.249183     0.461377    -0.788899 C          1 UNL1 0.000
    34 C      -0.653174     1.648827    -1.421979 C          1 UNL1 0.000
    35 C      -1.322627     1.616934    -2.648153 C          1 UNL1 0.000
    36 C      -1.590240     0.383024    -3.250483 C          1 UNL1 0.000
    37 C      -1.191931    -0.812124    -2.642161 C          1 UNL1 0.000
    38 C      -0.519866    -0.765769    -1.417803 C          1 UNL1 0.000
    39 N      -2.290105     0.342465    -4.536405 N          1 UNL1 0.000
    40 O      -2.301743     1.378090    -5.217393 O          1 UNL1 0.000
    41 O      -2.820998    -0.726881    -4.869627 O          1 UNL1 0.000
    42 H      -0.454427     2.610100    -0.951522 H          1 UNL1 0.000
    43 H      -1.632255     2.551764    -3.110043 H          1 UNL1 0.000
    44 H      -1.395563    -1.776695    -3.101742 H          1 UNL1 0.000
    45 H      -0.216142    -1.697438    -0.943652 H          1 UNL1 0.000
@<TRIPOS>BOND
     1      1      2   2
     2      2      3   1
     3      3      4   2
     4      4      5   1
     5      5      6   2
     6      6      1   1
     7      4      7   1
     8      7      8   1
     9      8      9   2
    10      9     10   1
    11     10     11   2
    12     11     12   1
    13     12     13   2
    14     13      8   1
    15      3     14   1
    16      9     14   1
    17     15     16   2
    18     16     17   1
    19     17     18   2
    20     18     19   1
    21     19     20   2
    22     20     15   1
    23      7     15   1
    24      1     21   1
    25      2     22   1
    26      5     23   1
    27      6     24   1
    28     10     25   1
    29     11     26   1
    30     12     27   1
    31     13     28   1
    32     16     29   1
    33     17     30   1
    34     18     31   1
    35     19     32   1
    36     33     34   2
    37     34     35   1
    38     35     36   2
    39     36     37   1
    40     37     38   2
    41     38     33   1
    42     39     40   2
    43     39     41   1
    44     36     39   1
    45     34     42   1
    46     35     43   1
    47     37     44   1
    48     38     45   1
    49     20     33   1
