# Produced with molli package
@<TRIPOS>MOLECULE
I_2_L
47 52 0 0 0
SMALL
USER_CHARGES

@<TRIPOS>ATOM
     1 C      -4.032473     4.112756     1.990954 C          1 UNL1 0.000
     2 C      -4.651121     2.865535     1.962534 C          1 UNL1 0.000
     3 C      -3.878769     1.701019     1.901796 C          1 UNL1 0.000
     4 C      -2.476259     1.759518     1.865489 C          1 UNL1 0.000
     5 C      -1.872207     3.028657     1.899690 C          1 UNL1 0.000
     6 C      -2.643228     4.194252     1.960417 C          1 UNL1 0.000
     7 N      -1.725657     0.540718     1.792238 N          1 UNL1 0.000
     8 C      -2.459752    -0.690638     1.804594 C          1 UNL1 0.000
     9 C      -3.862727    -0.653236     1.850360 C          1 UNL1 0.000
    10 C      -4.618701    -1.829890     1.871052 C          1 UNL1 0.000
    11 C      -3.982846    -3.068508     1.847098 C          1 UNL1 0.000
    12 C      -2.592958    -3.129278     1.802316 C          1 UNL1 0.000
    13 C      -1.838318    -1.951576     1.782963 C          1 UNL1 0.000
    14 O      -4.583050     0.518964     1.882137 O          1 UNL1 0.000
    15 C      -0.292740     0.550382     1.731108 C          1 UNL1 0.000
    16 C       0.429759     0.580703     2.939507 C          1 UNL1 0.000
    17 C       1.823200     0.578806     2.936668 C          1 UNL1 0.000
    18 C       2.512311     0.544430     1.728110 C          1 UNL1 0.000
    19 C       1.809304     0.514105     0.521098 C          1 UNL1 0.000
    20 C       0.402548     0.518655     0.497199 C          1 UNL1 0.000
    21 H      -4.632428     5.017552     2.037815 H          1 UNL1 0.000
    22 H      -5.734962     2.794720     1.987660 H          1 UNL1 0.000
    23 H      -0.790792     3.130433     1.875058 H          1 UNL1 0.000
    24 H      -2.154285     5.164879     1.983204 H          1 UNL1 0.000
    25 H      -5.703117    -1.775716     1.906686 H          1 UNL1 0.000
    26 H      -4.569718    -3.982855     1.863017 H          1 UNL1 0.000
    27 H      -2.090658    -4.093051     1.782147 H          1 UNL1 0.000
    28 H      -0.755956    -2.037733     1.749443 H          1 UNL1 0.000
    29 H      -0.108265     0.602552     3.884552 H          1 UNL1 0.000
    30 H       2.368170     0.602015     3.876650 H          1 UNL1 0.000
    31 H       3.599442     0.541498     1.721722 H          1 UNL1 0.000
    32 H       2.365199     0.489603    -0.414751 H          1 UNL1 0.000
    33 C      -0.291694     0.493051    -0.799804 C          1 UNL1 0.000
    34 C      -0.757533     1.680198    -1.382581 C          1 UNL1 0.000
    35 C      -1.433494     1.688615    -2.608251 C          1 UNL1 0.000
    36 C      -1.625976     0.459991    -3.245791 C          1 UNL1 0.000
    37 C      -1.169141    -0.743904    -2.712260 C          1 UNL1 0.000
    38 C      -0.490416    -0.724508    -1.477455 C          1 UNL1 0.000
    39 N      -2.255715     0.163930    -4.433505 N          1 UNL1 0.000
    40 C      -2.206395    -1.183998    -4.672463 C          1 UNL1 0.000
    41 C      -1.538805    -1.772427    -3.622630 C          1 UNL1 0.000
    42 H      -0.603136     2.627272    -0.869325 H          1 UNL1 0.000
    43 H      -1.797881     2.617003    -3.034479 H          1 UNL1 0.000
    44 H      -0.136733    -1.656114    -1.045256 H          1 UNL1 0.000
    45 H      -2.693633     0.848025    -5.034192 H          1 UNL1 0.000
    46 H      -2.653022    -1.606283    -5.562299 H          1 UNL1 0.000
    47 H      -1.340650    -2.830397    -3.514013 H          1 UNL1 0.000
@<TRIPOS>BOND
     1      1      2   2
     2      2      3   1
     3      3      4   2
     4      4      5   1
     5      5      6   2
     6      6      1   1
     7      4      7   1
     8      7      8   1
     9      8      9   2
    10      9     10   1
    11     10     11   2
    12     11     12   1
    13     12     13   2
    14     13      8   1
    15      3     14   1
    16      9     14   1
    17     15     16   2
    18     16     17   1
    19     17     18   2
    20     18     19   1
    21     19     20   2
    22     20     15   1
    23      7     15   1
    24      1     21   1
    25      2     22   1
    26      5     23   1
    27      6     24   1
    28     10     25   1
    29     11     26   1
    30     12     27   1
    31     13     28   1
    32     16     29   1
    33     17     30   1
    34     18     31   1
    35     19     32   1
    36     33     34   2
    37     34     35   1
    38     35     36   2
    39     36     37   1
    40     37     38   2
    41     38     33   1
    42     36     39   1
    43     39     40   1
    44     40     41   2
    45     41     37   1
    46     34     42   1
    47     35     43   1
    48     38     44   1
    49     39     45   1
    50     40     46   1
    51     41     47   1
    52     20     33   1
