# Produced with molli package
@<TRIPOS>MOLECULE
I_2_T
46 50 0 0 0
SMALL
USER_CHARGES

@<TRIPOS>ATOM
     1 C      -4.020501     4.075136     1.848534 C          1 UNL1 0.000
     2 C      -4.624108     2.820649     1.815451 C          1 UNL1 0.000
     3 C      -3.837893     1.663995     1.814893 C          1 UNL1 0.000
     4 C      -2.435859     1.738008     1.841683 C          1 UNL1 0.000
     5 C      -1.847358     3.014152     1.884664 C          1 UNL1 0.000
     6 C      -2.632285     4.171837     1.885565 C          1 UNL1 0.000
     7 N      -1.669671     0.526888     1.821970 N          1 UNL1 0.000
     8 C      -2.389727    -0.712346     1.824781 C          1 UNL1 0.000
     9 C      -3.793794    -0.690538     1.806759 C          1 UNL1 0.000
    10 C      -4.536657    -1.875535     1.808705 C          1 UNL1 0.000
    11 C      -3.886693    -3.106815     1.831854 C          1 UNL1 0.000
    12 C      -2.495452    -3.151929     1.853072 C          1 UNL1 0.000
    13 C      -1.753768    -1.965876     1.850223 C          1 UNL1 0.000
    14 O      -4.527512     0.473525     1.785126 O          1 UNL1 0.000
    15 C      -0.237349     0.554185     1.754398 C          1 UNL1 0.000
    16 C       0.492559     0.565800     2.958332 C          1 UNL1 0.000
    17 C       1.886086     0.587920     2.945853 C          1 UNL1 0.000
    18 C       2.567389     0.598708     1.732309 C          1 UNL1 0.000
    19 C       1.856639     0.586486     0.529806 C          1 UNL1 0.000
    20 C       0.450079     0.564036     0.515636 C          1 UNL1 0.000
    21 H      -4.631218     4.973892     1.846725 H          1 UNL1 0.000
    22 H      -5.707119     2.738343     1.788721 H          1 UNL1 0.000
    23 H      -0.767132     3.127343     1.913285 H          1 UNL1 0.000
    24 H      -2.155232     5.148166     1.913842 H          1 UNL1 0.000
    25 H      -5.622213    -1.833407     1.792268 H          1 UNL1 0.000
    26 H      -4.463655    -4.027590     1.833705 H          1 UNL1 0.000
    27 H      -1.982396    -4.110067     1.872203 H          1 UNL1 0.000
    28 H      -0.669930    -2.039223     1.868354 H          1 UNL1 0.000
    29 H      -0.038883     0.555883     3.907228 H          1 UNL1 0.000
    30 H       2.437716     0.596180     3.882236 H          1 UNL1 0.000
    31 H       3.654320     0.616358     1.718361 H          1 UNL1 0.000
    32 H       2.405817     0.595637    -0.410253 H          1 UNL1 0.000
    33 C      -0.250855     0.547789    -0.776743 C          1 UNL1 0.000
    34 C      -0.692954     1.737938    -1.371079 C          1 UNL1 0.000
    35 C      -1.365335     1.722427    -2.596380 C          1 UNL1 0.000
    36 C      -1.608531     0.513436    -3.254967 C          1 UNL1 0.000
    37 C      -1.151670    -0.676609    -2.678624 C          1 UNL1 0.000
    38 C      -0.481409    -0.658748    -1.452144 C          1 UNL1 0.000
    39 C      -2.317785     0.485740    -4.575766 C          1 UNL1 0.000
    40 H      -0.523171     2.690125    -0.874369 H          1 UNL1 0.000
    41 H      -1.703222     2.662653    -3.025360 H          1 UNL1 0.000
    42 H      -1.321534    -1.628079    -3.176918 H          1 UNL1 0.000
    43 H      -0.146834    -1.597837    -1.017651 H          1 UNL1 0.000
    44 H      -3.096947    -0.283584    -4.574247 H          1 UNL1 0.000
    45 H      -1.605669     0.274663    -5.379567 H          1 UNL1 0.000
    46 H      -2.803362     1.443904    -4.788506 H          1 UNL1 0.000
@<TRIPOS>BOND
     1      1      2   2
     2      2      3   1
     3      3      4   2
     4      4      5   1
     5      5      6   2
     6      6      1   1
     7      4      7   1
     8      7      8   1
     9      8      9   2
    10      9     10   1
    11     10     11   2
    12     11     12   1
    13     12     13   2
    14     13      8   1
    15      3     14   1
    16      9     14   1
    17     15     16   2
    18     16     17   1
    19     17     18   2
    20     18     19   1
    21     19     20   2
    22     20     15   1
    23      7     15   1
    24      1     21   1
    25      2     22   1
    26      5     23   1
    27      6     24   1
    28     10     25   1
    29     11     26   1
    30     12     27   1
    31     13     28   1
    32     16     29   1
    33     17     30   1
    34     18     31   1
    35     19     32   1
    36     33     34   2
    37     34     35   1
    38     35     36   2
    39     36     37   1
    40     37     38   2
    41     38     33   1
    42     36     39   1
    43     34     40   1
    44     35     41   1
    45     37     42   1
    46     38     43   1
    47     39     44   1
    48     39     45   1
    49     39     46   1
    50     20     33   1
