# Produced with molli package
@<TRIPOS>MOLECULE
I_2_R
44 48 0 0 0
SMALL
USER_CHARGES

@<TRIPOS>ATOM
     1 C      -3.878628     4.185738     1.915909 C          1 UNL1 0.000
     2 C      -4.530624     2.955812     1.886921 C          1 UNL1 0.000
     3 C      -3.789320     1.770785     1.849292 C          1 UNL1 0.000
     4 C      -2.385134     1.791313     1.836016 C          1 UNL1 0.000
     5 C      -1.746805     3.043189     1.877055 C          1 UNL1 0.000
     6 C      -2.487226     4.229402     1.913457 C          1 UNL1 0.000
     7 N      -1.667460     0.552776     1.773272 N          1 UNL1 0.000
     8 C      -2.435592    -0.658455     1.758811 C          1 UNL1 0.000
     9 C      -3.837399    -0.583130     1.794726 C          1 UNL1 0.000
    10 C      -4.626104    -1.738444     1.795889 C          1 UNL1 0.000
    11 C      -4.024694    -2.993714     1.757785 C          1 UNL1 0.000
    12 C      -2.636975    -3.091795     1.713950 C          1 UNL1 0.000
    13 C      -1.849677    -1.935333     1.713825 C          1 UNL1 0.000
    14 O      -4.525105     0.608343     1.827437 O          1 UNL1 0.000
    15 C      -0.234210     0.520434     1.720566 C          1 UNL1 0.000
    16 C       0.484377     0.492883     2.930598 C          1 UNL1 0.000
    17 C       1.877395     0.446499     2.929169 C          1 UNL1 0.000
    18 C       2.568957     0.422200     1.721268 C          1 UNL1 0.000
    19 C       1.868936     0.447670     0.512607 C          1 UNL1 0.000
    20 C       0.463604     0.502622     0.488885 C          1 UNL1 0.000
    21 H      -4.454978     5.106756     1.945213 H          1 UNL1 0.000
    22 H      -5.616516     2.914970     1.894393 H          1 UNL1 0.000
    23 H      -0.662884     3.116356     1.881914 H          1 UNL1 0.000
    24 H      -1.973945     5.187397     1.942792 H          1 UNL1 0.000
    25 H      -5.708942    -1.655531     1.826622 H          1 UNL1 0.000
    26 H      -4.635913    -3.892226     1.758569 H          1 UNL1 0.000
    27 H      -2.160200    -4.068121     1.676320 H          1 UNL1 0.000
    28 H      -0.770172    -2.052341     1.668245 H          1 UNL1 0.000
    29 H      -0.054656     0.500092     3.875384 H          1 UNL1 0.000
    30 H       2.420702     0.420521     3.870298 H          1 UNL1 0.000
    31 H       3.655323     0.376445     1.717623 H          1 UNL1 0.000
    32 H       2.424770     0.416220    -0.422859 H          1 UNL1 0.000
    33 C      -0.236832     0.543499    -0.796894 C          1 UNL1 0.000
    34 N      -0.506580    -0.660521    -1.364221 N          1 UNL1 0.000
    35 C      -1.205163    -0.662194    -2.526776 C          1 UNL1 0.000
    36 C      -1.618225     0.497086    -3.163321 C          1 UNL1 0.000
    37 C      -1.304024     1.731861    -2.595817 C          1 UNL1 0.000
    38 C      -0.600749     1.752185    -1.392621 C          1 UNL1 0.000
    39 N      -2.366638     0.415047    -4.407436 N          1 UNL1 0.000
    40 O      -2.450054    -0.691984    -4.958591 O          1 UNL1 0.000
    41 O      -2.869030     1.458758    -4.845799 O          1 UNL1 0.000
    42 H      -1.421923    -1.652932    -2.918237 H          1 UNL1 0.000
    43 H      -1.601080     2.667768    -3.061972 H          1 UNL1 0.000
    44 H      -0.354140     2.697512    -0.918868 H          1 UNL1 0.000
@<TRIPOS>BOND
     1      1      2   2
     2      2      3   1
     3      3      4   2
     4      4      5   1
     5      5      6   2
     6      6      1   1
     7      4      7   1
     8      7      8   1
     9      8      9   2
    10      9     10   1
    11     10     11   2
    12     11     12   1
    13     12     13   2
    14     13      8   1
    15      3     14   1
    16      9     14   1
    17     15     16   2
    18     16     17   1
    19     17     18   2
    20     18     19   1
    21     19     20   2
    22     20     15   1
    23      7     15   1
    24      1     21   1
    25      2     22   1
    26      5     23   1
    27      6     24   1
    28     10     25   1
    29     11     26   1
    30     12     27   1
    31     13     28   1
    32     16     29   1
    33     17     30   1
    34     18     31   1
    35     19     32   1
    36     33     34   2
    37     34     35   1
    38     35     36   2
    39     36     37   1
    40     37     38   2
    41     38     33   1
    42     39     40   2
    43     39     41   1
    44     36     39   1
    45     35     42   1
    46     37     43   1
    47     38     44   1
    48     20     33   1
