# Produced with molli package
@<TRIPOS>MOLECULE
I_2_Q
41 45 0 0 0
SMALL
USER_CHARGES

@<TRIPOS>ATOM
     1 C      -3.851796     4.078014     1.858753 C          1 UNL1 0.000
     2 C      -4.501371     2.846534     1.840047 C          1 UNL1 0.000
     3 C      -3.757727     1.662275     1.843837 C          1 UNL1 0.000
     4 C      -2.353692     1.685366     1.859226 C          1 UNL1 0.000
     5 C      -1.717842     2.938958     1.888963 C          1 UNL1 0.000
     6 C      -2.460789     4.124195     1.886526 C          1 UNL1 0.000
     7 N      -1.632644     0.447075     1.845167 N          1 UNL1 0.000
     8 C      -2.398481    -0.765542     1.846808 C          1 UNL1 0.000
     9 C      -3.800667    -0.692385     1.844754 C          1 UNL1 0.000
    10 C      -4.587172    -1.849332     1.847418 C          1 UNL1 0.000
    11 C      -3.982866    -3.103913     1.851928 C          1 UNL1 0.000
    12 C      -2.594353    -3.199903     1.850257 C          1 UNL1 0.000
    13 C      -1.809374    -2.041870     1.846563 C          1 UNL1 0.000
    14 O      -4.491180     0.497986     1.832562 O          1 UNL1 0.000
    15 C      -0.201145     0.418539     1.760850 C          1 UNL1 0.000
    16 C       0.542785     0.361445     2.954638 C          1 UNL1 0.000
    17 C       1.936085     0.342234     2.924284 C          1 UNL1 0.000
    18 C       2.603096     0.377872     1.703194 C          1 UNL1 0.000
    19 C       1.878005     0.433894     0.510427 C          1 UNL1 0.000
    20 C       0.470697     0.456950     0.515148 C          1 UNL1 0.000
    21 H      -4.429495     4.998501     1.854148 H          1 UNL1 0.000
    22 H      -5.586812     2.803926     1.821769 H          1 UNL1 0.000
    23 H      -0.634793     3.014782     1.918809 H          1 UNL1 0.000
    24 H      -1.949597     5.083465     1.906834 H          1 UNL1 0.000
    25 H      -5.670347    -1.767505     1.843432 H          1 UNL1 0.000
    26 H      -4.592452    -4.003372     1.851853 H          1 UNL1 0.000
    27 H      -2.114825    -4.175441     1.845488 H          1 UNL1 0.000
    28 H      -0.729047    -2.156058     1.830133 H          1 UNL1 0.000
    29 H       0.022815     0.330622     3.909587 H          1 UNL1 0.000
    30 H       2.498880     0.294676     3.853032 H          1 UNL1 0.000
    31 H       3.689921     0.355636     1.676459 H          1 UNL1 0.000
    32 H       2.417921     0.447332    -0.435100 H          1 UNL1 0.000
    33 C      -0.255437     0.527313    -0.753943 C          1 UNL1 0.000
    34 N      -0.789268    -0.631803    -1.216384 N          1 UNL1 0.000
    35 C      -1.489094    -0.537660    -2.369652 C          1 UNL1 0.000
    36 C      -1.622806     0.651822    -3.066063 C          1 UNL1 0.000
    37 N      -1.066335     1.807160    -2.640903 N          1 UNL1 0.000
    38 C      -0.391902     1.716967    -1.467339 C          1 UNL1 0.000
    39 H      -1.947088    -1.454724    -2.721326 H          1 UNL1 0.000
    40 H      -2.185984     0.706483    -3.990438 H          1 UNL1 0.000
    41 H       0.039807     2.644443    -1.107079 H          1 UNL1 0.000
@<TRIPOS>BOND
     1      1      2   2
     2      2      3   1
     3      3      4   2
     4      4      5   1
     5      5      6   2
     6      6      1   1
     7      4      7   1
     8      7      8   1
     9      8      9   2
    10      9     10   1
    11     10     11   2
    12     11     12   1
    13     12     13   2
    14     13      8   1
    15      3     14   1
    16      9     14   1
    17     15     16   2
    18     16     17   1
    19     17     18   2
    20     18     19   1
    21     19     20   2
    22     20     15   1
    23      7     15   1
    24      1     21   1
    25      2     22   1
    26      5     23   1
    27      6     24   1
    28     10     25   1
    29     11     26   1
    30     12     27   1
    31     13     28   1
    32     16     29   1
    33     17     30   1
    34     18     31   1
    35     19     32   1
    36     33     34   2
    37     34     35   1
    38     35     36   2
    39     36     37   1
    40     37     38   2
    41     38     33   1
    42     35     39   1
    43     36     40   1
    44     38     41   1
    45     20     33   1
