# Produced with molli package
@<TRIPOS>MOLECULE
I_2_N
40 44 0 0 0
SMALL
USER_CHARGES

@<TRIPOS>ATOM
     1 C      -3.928568     4.035458     1.955327 C          1 UNL1 0.000
     2 C      -4.545198     2.787122     1.938022 C          1 UNL1 0.000
     3 C      -3.770663     1.623470     1.892088 C          1 UNL1 0.000
     4 C      -2.367901     1.683733     1.863648 C          1 UNL1 0.000
     5 C      -1.765777     2.954147     1.880472 C          1 UNL1 0.000
     6 C      -2.539359     4.118929     1.925741 C          1 UNL1 0.000
     7 N      -1.615167     0.464899     1.816601 N          1 UNL1 0.000
     8 C      -2.348107    -0.767185     1.826630 C          1 UNL1 0.000
     9 C      -3.751575    -0.731028     1.849583 C          1 UNL1 0.000
    10 C      -4.506679    -1.908310     1.851133 C          1 UNL1 0.000
    11 C      -3.869304    -3.146256     1.833608 C          1 UNL1 0.000
    12 C      -2.478766    -3.205863     1.819156 C          1 UNL1 0.000
    13 C      -1.724924    -2.027562     1.818665 C          1 UNL1 0.000
    14 O      -4.473197     0.440352     1.875175 O          1 UNL1 0.000
    15 C      -0.184242     0.476570     1.755379 C          1 UNL1 0.000
    16 C       0.544117     0.528486     2.958203 C          1 UNL1 0.000
    17 C       1.939245     0.533808     2.947367 C          1 UNL1 0.000
    18 C       2.625894     0.486834     1.736110 C          1 UNL1 0.000
    19 C       1.919972     0.435463     0.532705 C          1 UNL1 0.000
    20 C       0.516999     0.428795     0.530501 C          1 UNL1 0.000
    21 H      -4.530227     4.939747     1.991230 H          1 UNL1 0.000
    22 H      -5.629095     2.715093     1.959851 H          1 UNL1 0.000
    23 H      -0.684686     3.058642     1.856942 H          1 UNL1 0.000
    24 H      -2.052665     5.090975     1.938141 H          1 UNL1 0.000
    25 H      -5.591729    -1.855348     1.865551 H          1 UNL1 0.000
    26 H      -4.455735    -4.061148     1.832493 H          1 UNL1 0.000
    27 H      -1.975706    -4.169493     1.807498 H          1 UNL1 0.000
    28 H      -0.642099    -2.113576     1.809582 H          1 UNL1 0.000
    29 H       0.012000     0.563057     3.906330 H          1 UNL1 0.000
    30 H       2.488589     0.574264     3.884590 H          1 UNL1 0.000
    31 H       3.713139     0.491635     1.726832 H          1 UNL1 0.000
    32 H       2.468728     0.403426    -0.406329 H          1 UNL1 0.000
    33 C      -0.174218     0.388535    -0.749945 C          1 UNL1 0.000
    34 C      -0.407183    -0.804993    -1.403507 C          1 UNL1 0.000
    35 S      -1.236231    -0.582523    -2.884541 S          1 UNL1 0.000
    36 C      -1.279796     1.113614    -2.668526 C          1 UNL1 0.000
    37 C      -0.677598     1.501109    -1.491693 C          1 UNL1 0.000
    38 H      -0.144165    -1.803467    -1.082424 H          1 UNL1 0.000
    39 H      -1.747424     1.744320    -3.411632 H          1 UNL1 0.000
    40 H      -0.609103     2.533803    -1.173073 H          1 UNL1 0.000
@<TRIPOS>BOND
     1      1      2   2
     2      2      3   1
     3      3      4   2
     4      4      5   1
     5      5      6   2
     6      6      1   1
     7      4      7   1
     8      7      8   1
     9      8      9   2
    10      9     10   1
    11     10     11   2
    12     11     12   1
    13     12     13   2
    14     13      8   1
    15      3     14   1
    16      9     14   1
    17     15     16   2
    18     16     17   1
    19     17     18   2
    20     18     19   1
    21     19     20   2
    22     20     15   1
    23      7     15   1
    24      1     21   1
    25      2     22   1
    26      5     23   1
    27      6     24   1
    28     10     25   1
    29     11     26   1
    30     12     27   1
    31     13     28   1
    32     16     29   1
    33     17     30   1
    34     18     31   1
    35     19     32   1
    36     33     34   2
    37     34     35   1
    38     35     36   1
    39     36     37   2
    40     37     33   1
    41     34     38   1
    42     36     39   1
    43     37     40   1
    44     20     33   1
