# Produced with molli package
@<TRIPOS>MOLECULE
I_3_T
58 64 0 0 0
SMALL
USER_CHARGES

@<TRIPOS>ATOM
     1 C      -6.034403     4.160557     0.511188 C          1 UNL1 0.000
     2 C      -6.674397     2.923776     0.507798 C          1 UNL1 0.000
     3 C      -5.921215     1.745687     0.490981 C          1 UNL1 0.000
     4 C      -4.517360     1.780910     0.477634 C          1 UNL1 0.000
     5 C      -3.890892     3.038874     0.482720 C          1 UNL1 0.000
     6 C      -4.643414     4.217866     0.498696 C          1 UNL1 0.000
     7 N      -3.786777     0.546745     0.458992 N          1 UNL1 0.000
     8 C      -4.541575    -0.672744     0.452168 C          1 UNL1 0.000
     9 C      -5.944345    -0.610225     0.469599 C          1 UNL1 0.000
    10 C      -6.720212    -1.773530     0.468242 C          1 UNL1 0.000
    11 C      -6.104365    -3.022388     0.447928 C          1 UNL1 0.000
    12 C      -4.714852    -3.106590     0.427933 C          1 UNL1 0.000
    13 C      -3.939684    -1.942442     0.429648 C          1 UNL1 0.000
    14 O      -6.644145     0.574610     0.489636 O          1 UNL1 0.000
    15 C      -2.319620     0.453061     2.949954 C          1 UNL1 0.000
    16 C      -1.641863     0.402854     4.166256 C          1 UNL1 0.000
    17 C      -0.259839     0.386676     4.172052 C          1 UNL1 0.000
    18 C       0.432512     0.423451     2.961548 C          1 UNL1 0.000
    19 C      -0.227876     0.474769     1.705252 C          1 UNL1 0.000
    20 C      -1.641905     0.486715     1.704585 C          1 UNL1 0.000
    21 C       0.477650     0.514758     0.460703 C          1 UNL1 0.000
    22 C      -0.226988     0.554177    -0.784919 C          1 UNL1 0.000
    23 C      -1.640818     0.562032    -0.785665 C          1 UNL1 0.000
    24 C      -2.337136     0.532185     0.459207 C          1 UNL1 0.000
    25 C       0.434866     0.586971    -2.041227 C          1 UNL1 0.000
    26 C      -0.255562     0.624082    -3.252620 C          1 UNL1 0.000
    27 C      -1.637588     0.630770    -3.247818 C          1 UNL1 0.000
    28 C      -2.317044     0.600241    -2.031717 C          1 UNL1 0.000
    29 H      -6.618647     5.076845     0.523727 H          1 UNL1 0.000
    30 H      -7.759665     2.873073     0.518115 H          1 UNL1 0.000
    31 H      -2.807504     3.123234     0.473209 H          1 UNL1 0.000
    32 H      -4.138062     5.180537     0.501167 H          1 UNL1 0.000
    33 H      -7.804231    -1.701936     0.483374 H          1 UNL1 0.000
    34 H      -6.706254    -3.927242     0.447350 H          1 UNL1 0.000
    35 H      -4.228214    -4.078690     0.411289 H          1 UNL1 0.000
    36 H      -2.858179    -2.047520     0.413489 H          1 UNL1 0.000
    37 H      -3.407961     0.464811     2.982965 H          1 UNL1 0.000
    38 H      -2.197979     0.376137     5.099128 H          1 UNL1 0.000
    39 H       0.285527     0.346195     5.110843 H          1 UNL1 0.000
    40 H       1.520176     0.409459     3.013386 H          1 UNL1 0.000
    41 H       1.522654     0.582685    -2.092732 H          1 UNL1 0.000
    42 H       0.291532     0.647177    -4.190987 H          1 UNL1 0.000
    43 H      -2.192217     0.659561    -4.181478 H          1 UNL1 0.000
    44 H      -3.405417     0.606393    -2.065241 H          1 UNL1 0.000
    45 C       1.959704     0.525962     0.459199 C          1 UNL1 0.000
    46 C       2.663920     1.738868     0.505220 C          1 UNL1 0.000
    47 C       4.060960     1.755139     0.489255 C          1 UNL1 0.000
    48 C       4.782036     0.558508     0.421841 C          1 UNL1 0.000
    49 C       4.085461    -0.655136     0.386651 C          1 UNL1 0.000
    50 C       2.688291    -0.671443     0.403569 C          1 UNL1 0.000
    51 C       6.282002     0.562741     0.409940 C          1 UNL1 0.000
    52 H       2.120604     2.680668     0.551431 H          1 UNL1 0.000
    53 H       4.579062     2.710689     0.526265 H          1 UNL1 0.000
    54 H       4.627496    -1.597232     0.342688 H          1 UNL1 0.000
    55 H       2.165347    -1.625073     0.369856 H          1 UNL1 0.000
    56 H       6.656067    -0.028821    -0.432082 H          1 UNL1 0.000
    57 H       6.666620     0.142731     1.344569 H          1 UNL1 0.000
    58 H       6.679050     1.577607     0.302725 H          1 UNL1 0.000
@<TRIPOS>BOND
     1      1      2   2
     2      2      3   1
     3      3      4   2
     4      4      5   1
     5      5      6   2
     6      6      1   1
     7      4      7   1
     8      7      8   1
     9      8      9   2
    10      9     10   1
    11     10     11   2
    12     11     12   1
    13     12     13   2
    14     13      8   1
    15      3     14   1
    16      9     14   1
    17     15     16   2
    18     16     17   1
    19     17     18   2
    20     18     19   1
    21     19     20   2
    22     20     15   1
    23     19     21   1
    24     21     22   2
    25     22     23   1
    26     23     24   2
    27     24     20   1
    28     22     25   1
    29     25     26   2
    30     26     27   1
    31     27     28   2
    32     28     23   1
    33      7     24   1
    34      1     29   1
    35      2     30   1
    36      5     31   1
    37      6     32   1
    38     10     33   1
    39     11     34   1
    40     12     35   1
    41     13     36   1
    42     15     37   1
    43     16     38   1
    44     17     39   1
    45     18     40   1
    46     25     41   1
    47     26     42   1
    48     27     43   1
    49     28     44   1
    50     45     46   2
    51     46     47   1
    52     47     48   2
    53     48     49   1
    54     49     50   2
    55     50     45   1
    56     48     51   1
    57     46     52   1
    58     47     53   1
    59     49     54   1
    60     50     55   1
    61     51     56   1
    62     51     57   1
    63     51     58   1
    64     21     45   1
