# Produced with molli package
@<TRIPOS>MOLECULE
I_3_P
59 65 0 0 0
SMALL
USER_CHARGES

@<TRIPOS>ATOM
     1 C      -6.062785     4.182190     0.329554 C          1 UNL1 0.000
     2 C      -6.700596     2.944527     0.305558 C          1 UNL1 0.000
     3 C      -5.947428     1.767609     0.359765 C          1 UNL1 0.000
     4 C      -4.545632     1.804914     0.436064 C          1 UNL1 0.000
     5 C      -3.921403     3.063728     0.460032 C          1 UNL1 0.000
     6 C      -4.674022     4.241561     0.407802 C          1 UNL1 0.000
     7 N      -3.814545     0.571863     0.484646 N          1 UNL1 0.000
     8 C      -4.567557    -0.648726     0.462893 C          1 UNL1 0.000
     9 C      -5.968366    -0.588223     0.384464 C          1 UNL1 0.000
    10 C      -6.742129    -1.752560     0.353614 C          1 UNL1 0.000
    11 C      -6.126282    -3.000553     0.403562 C          1 UNL1 0.000
    12 C      -4.738904    -3.082819     0.485276 C          1 UNL1 0.000
    13 C      -3.965741    -1.917614     0.514764 C          1 UNL1 0.000
    14 O      -6.668050     0.595544     0.329569 O          1 UNL1 0.000
    15 C      -2.377077     0.615062     2.994155 C          1 UNL1 0.000
    16 C      -1.713409     0.638027     4.219071 C          1 UNL1 0.000
    17 C      -0.331492     0.622919     4.241924 C          1 UNL1 0.000
    18 C       0.374648     0.584763     3.039661 C          1 UNL1 0.000
    19 C      -0.270593     0.562876     1.774604 C          1 UNL1 0.000
    20 C      -1.684715     0.578694     1.757206 C          1 UNL1 0.000
    21 C       0.449786     0.526821     0.537782 C          1 UNL1 0.000
    22 C      -0.239592     0.509157    -0.716162 C          1 UNL1 0.000
    23 C      -1.653686     0.525303    -0.733225 C          1 UNL1 0.000
    24 C      -2.364838     0.558567     0.503690 C          1 UNL1 0.000
    25 C       0.436384     0.477749    -1.964810 C          1 UNL1 0.000
    26 C      -0.240460     0.461863    -3.184482 C          1 UNL1 0.000
    27 C      -1.622406     0.477585    -3.195877 C          1 UNL1 0.000
    28 C      -2.315173     0.509031    -1.987610 C          1 UNL1 0.000
    29 H      -6.647038     5.097597     0.287559 H          1 UNL1 0.000
    30 H      -7.784109     2.892227     0.244180 H          1 UNL1 0.000
    31 H      -2.839846     3.149641     0.521115 H          1 UNL1 0.000
    32 H      -4.170528     5.204987     0.428299 H          1 UNL1 0.000
    33 H      -7.824496    -1.682450     0.289891 H          1 UNL1 0.000
    34 H      -6.726538    -3.906190     0.379230 H          1 UNL1 0.000
    35 H      -4.252473    -4.054324     0.526032 H          1 UNL1 0.000
    36 H      -2.885957    -2.021302     0.579554 H          1 UNL1 0.000
    37 H      -3.465875     0.627319     3.013134 H          1 UNL1 0.000
    38 H      -2.279736     0.667556     5.145679 H          1 UNL1 0.000
    39 H       0.203397     0.640502     5.187510 H          1 UNL1 0.000
    40 H       1.461637     0.572935     3.106487 H          1 UNL1 0.000
    41 H       1.524425     0.465996    -2.003599 H          1 UNL1 0.000
    42 H       0.316159     0.438052    -4.117161 H          1 UNL1 0.000
    43 H      -2.167050     0.466305    -4.135809 H          1 UNL1 0.000
    44 H      -3.403056     0.521888    -2.034784 H          1 UNL1 0.000
    45 C       1.932139     0.513693     0.558157 C          1 UNL1 0.000
    46 C       2.639271    -0.701338     0.574471 C          1 UNL1 0.000
    47 C       4.035510    -0.711835     0.610521 C          1 UNL1 0.000
    48 C       4.730959     0.494323     0.617648 C          1 UNL1 0.000
    49 C       4.050916     1.708781     0.621385 C          1 UNL1 0.000
    50 C       2.655840     1.718311     0.581349 C          1 UNL1 0.000
    51 O       6.096075     0.501999     0.701482 O          1 UNL1 0.000
    52 C       6.667920     0.354731    -0.598166 C          1 UNL1 0.000
    53 H       2.098007    -1.645427     0.570704 H          1 UNL1 0.000
    54 H       4.572659    -1.654900     0.644704 H          1 UNL1 0.000
    55 H       4.603034     2.643082     0.658946 H          1 UNL1 0.000
    56 H       2.128585     2.670148     0.580829 H          1 UNL1 0.000
    57 H       7.746604     0.515080    -0.508826 H          1 UNL1 0.000
    58 H       6.273141     1.099159    -1.299128 H          1 UNL1 0.000
    59 H       6.504930    -0.657224    -0.983758 H          1 UNL1 0.000
@<TRIPOS>BOND
     1      1      2   2
     2      2      3   1
     3      3      4   2
     4      4      5   1
     5      5      6   2
     6      6      1   1
     7      4      7   1
     8      7      8   1
     9      8      9   2
    10      9     10   1
    11     10     11   2
    12     11     12   1
    13     12     13   2
    14     13      8   1
    15      3     14   1
    16      9     14   1
    17     15     16   2
    18     16     17   1
    19     17     18   2
    20     18     19   1
    21     19     20   2
    22     20     15   1
    23     19     21   1
    24     21     22   2
    25     22     23   1
    26     23     24   2
    27     24     20   1
    28     22     25   1
    29     25     26   2
    30     26     27   1
    31     27     28   2
    32     28     23   1
    33      7     24   1
    34      1     29   1
    35      2     30   1
    36      5     31   1
    37      6     32   1
    38     10     33   1
    39     11     34   1
    40     12     35   1
    41     13     36   1
    42     15     37   1
    43     16     38   1
    44     17     39   1
    45     18     40   1
    46     25     41   1
    47     26     42   1
    48     27     43   1
    49     28     44   1
    50     45     46   2
    51     46     47   1
    52     47     48   2
    53     48     49   1
    54     49     50   2
    55     50     45   1
    56     51     52   1
    57     48     51   1
    58     46     53   1
    59     47     54   1
    60     49     55   1
    61     50     56   1
    62     52     57   1
    63     52     58   1
    64     52     59   1
    65     21     45   1
