# Produced with molli package
@<TRIPOS>MOLECULE
I_3_N
52 58 0 0 0
SMALL
USER_CHARGES

@<TRIPOS>ATOM
     1 C      -6.159454     4.086439     0.484625 C          1 UNL1 0.000
     2 C      -6.768960     2.834928     0.447288 C          1 UNL1 0.000
     3 C      -5.987221     1.675706     0.434701 C          1 UNL1 0.000
     4 C      -4.584783     1.744963     0.458685 C          1 UNL1 0.000
     5 C      -3.989251     3.017271     0.494492 C          1 UNL1 0.000
     6 C      -4.770396     4.177367     0.508171 C          1 UNL1 0.000
     7 N      -3.824175     0.529233     0.446968 N          1 UNL1 0.000
     8 C      -4.548840    -0.708326     0.412228 C          1 UNL1 0.000
     9 C      -5.952656    -0.679671     0.388434 C          1 UNL1 0.000
    10 C      -6.700020    -1.861087     0.353180 C          1 UNL1 0.000
    11 C      -6.054164    -3.094758     0.341258 C          1 UNL1 0.000
    12 C      -4.663129    -3.145691     0.365102 C          1 UNL1 0.000
    13 C      -3.916451    -1.963401     0.400761 C          1 UNL1 0.000
    14 O      -6.681138     0.487836     0.398101 O          1 UNL1 0.000
    15 C      -2.400031     0.571718     2.966155 C          1 UNL1 0.000
    16 C      -1.742947     0.595153     4.194880 C          1 UNL1 0.000
    17 C      -0.361094     0.605451     4.225715 C          1 UNL1 0.000
    18 C       0.352056     0.587032     3.027386 C          1 UNL1 0.000
    19 C      -0.288557     0.562281     1.758676 C          1 UNL1 0.000
    20 C      -1.701375     0.560880     1.732113 C          1 UNL1 0.000
    21 C       0.424189     0.537989     0.520971 C          1 UNL1 0.000
    22 C      -0.244723     0.545068    -0.741036 C          1 UNL1 0.000
    23 C      -1.657786     0.551437    -0.763522 C          1 UNL1 0.000
    24 C      -2.374713     0.548432     0.472200 C          1 UNL1 0.000
    25 C       0.439530     0.544771    -1.986938 C          1 UNL1 0.000
    26 C      -0.231884     0.554484    -3.209405 C          1 UNL1 0.000
    27 C      -1.614082     0.561953    -3.226357 C          1 UNL1 0.000
    28 C      -2.313381     0.559208    -2.020957 C          1 UNL1 0.000
    29 H      -6.766006     4.988143     0.495255 H          1 UNL1 0.000
    30 H      -7.852592     2.758067     0.428367 H          1 UNL1 0.000
    31 H      -2.908423     3.127820     0.513589 H          1 UNL1 0.000
    32 H      -4.288990     5.151787     0.537566 H          1 UNL1 0.000
    33 H      -7.785437    -1.815507     0.335155 H          1 UNL1 0.000
    34 H      -6.633906    -4.013611     0.313698 H          1 UNL1 0.000
    35 H      -4.153326    -4.106015     0.356010 H          1 UNL1 0.000
    36 H      -2.832947    -2.043504     0.418875 H          1 UNL1 0.000
    37 H      -3.488907     0.564787     2.980344 H          1 UNL1 0.000
    38 H      -2.315151     0.606762     5.118406 H          1 UNL1 0.000
    39 H       0.167535     0.626754     5.174753 H          1 UNL1 0.000
    40 H       1.438497     0.595854     3.098340 H          1 UNL1 0.000
    41 H       1.527781     0.539376    -2.020200 H          1 UNL1 0.000
    42 H       0.329117     0.556477    -4.139941 H          1 UNL1 0.000
    43 H      -2.153987     0.569853    -4.169200 H          1 UNL1 0.000
    44 H      -3.401156     0.565308    -2.072627 H          1 UNL1 0.000
    45 C       1.890625     0.496852     0.547962 C          1 UNL1 0.000
    46 C       2.569005    -0.705751     0.600098 C          1 UNL1 0.000
    47 S       4.266441    -0.488304     0.629661 S          1 UNL1 0.000
    48 C       4.106250     1.214245     0.571371 C          1 UNL1 0.000
    49 C       2.787301     1.610364     0.530437 C          1 UNL1 0.000
    50 H       2.152430    -1.704171     0.624808 H          1 UNL1 0.000
    51 H       4.986952     1.841659     0.570519 H          1 UNL1 0.000
    52 H       2.477790     2.647878     0.490885 H          1 UNL1 0.000
@<TRIPOS>BOND
     1      1      2   2
     2      2      3   1
     3      3      4   2
     4      4      5   1
     5      5      6   2
     6      6      1   1
     7      4      7   1
     8      7      8   1
     9      8      9   2
    10      9     10   1
    11     10     11   2
    12     11     12   1
    13     12     13   2
    14     13      8   1
    15      3     14   1
    16      9     14   1
    17     15     16   2
    18     16     17   1
    19     17     18   2
    20     18     19   1
    21     19     20   2
    22     20     15   1
    23     19     21   1
    24     21     22   2
    25     22     23   1
    26     23     24   2
    27     24     20   1
    28     22     25   1
    29     25     26   2
    30     26     27   1
    31     27     28   2
    32     28     23   1
    33      7     24   1
    34      1     29   1
    35      2     30   1
    36      5     31   1
    37      6     32   1
    38     10     33   1
    39     11     34   1
    40     12     35   1
    41     13     36   1
    42     15     37   1
    43     16     38   1
    44     17     39   1
    45     18     40   1
    46     25     41   1
    47     26     42   1
    48     27     43   1
    49     28     44   1
    50     45     46   2
    51     46     47   1
    52     47     48   1
    53     48     49   2
    54     49     45   1
    55     46     50   1
    56     48     51   1
    57     49     52   1
    58     21     45   1
