# Produced with molli package
@<TRIPOS>MOLECULE
I_3_Q
53 59 0 0 0
SMALL
USER_CHARGES

@<TRIPOS>ATOM
     1 C      -6.061511     4.110341     0.488442 C          1 UNL1 0.000
     2 C      -6.696273     2.870967     0.479704 C          1 UNL1 0.000
     3 C      -5.938254     1.696154     0.498373 C          1 UNL1 0.000
     4 C      -4.534636     1.737294     0.523731 C          1 UNL1 0.000
     5 C      -3.913445     2.997687     0.531389 C          1 UNL1 0.000
     6 C      -4.670918     4.173497     0.514744 C          1 UNL1 0.000
     7 N      -3.799310     0.506363     0.542047 N          1 UNL1 0.000
     8 C      -4.549426    -0.716566     0.545100 C          1 UNL1 0.000
     9 C      -5.952233    -0.659823     0.519165 C          1 UNL1 0.000
    10 C      -6.723548    -1.826252     0.521248 C          1 UNL1 0.000
    11 C      -6.103036    -3.072625     0.551262 C          1 UNL1 0.000
    12 C      -4.713380    -3.151235     0.578076 C          1 UNL1 0.000
    13 C      -3.942743    -1.984052     0.574355 C          1 UNL1 0.000
    14 O      -6.656433     0.522177     0.489796 O          1 UNL1 0.000
    15 C      -2.337918     0.525212     3.037261 C          1 UNL1 0.000
    16 C      -1.663473     0.518247     4.256235 C          1 UNL1 0.000
    17 C      -0.282116     0.471573     4.266641 C          1 UNL1 0.000
    18 C       0.413527     0.437377     3.057914 C          1 UNL1 0.000
    19 C      -0.243532     0.454634     1.798523 C          1 UNL1 0.000
    20 C      -1.657343     0.492602     1.793872 C          1 UNL1 0.000
    21 C       0.463191     0.430897     0.554742 C          1 UNL1 0.000
    22 C      -0.237352     0.429772    -0.692890 C          1 UNL1 0.000
    23 C      -1.650848     0.466217    -0.697012 C          1 UNL1 0.000
    24 C      -2.349833     0.493962     0.546525 C          1 UNL1 0.000
    25 C       0.427207     0.392170    -1.947915 C          1 UNL1 0.000
    26 C      -0.260675     0.399418    -3.161275 C          1 UNL1 0.000
    27 C      -1.642070     0.441530    -3.159906 C          1 UNL1 0.000
    28 C      -2.323805     0.472167    -1.945193 C          1 UNL1 0.000
    29 H      -6.649710     5.024121     0.475110 H          1 UNL1 0.000
    30 H      -7.781215     2.815605     0.459054 H          1 UNL1 0.000
    31 H      -2.830812     3.086363     0.552047 H          1 UNL1 0.000
    32 H      -4.170220     5.138564     0.522604 H          1 UNL1 0.000
    33 H      -7.807762    -1.759216     0.500016 H          1 UNL1 0.000
    34 H      -6.701196    -3.979957     0.553963 H          1 UNL1 0.000
    35 H      -4.222634    -4.121201     0.602178 H          1 UNL1 0.000
    36 H      -2.860857    -2.086125     0.596082 H          1 UNL1 0.000
    37 H      -3.426219     0.554911     3.066812 H          1 UNL1 0.000
    38 H      -2.221812     0.542286     5.187965 H          1 UNL1 0.000
    39 H       0.259465     0.455288     5.208541 H          1 UNL1 0.000
    40 H       1.499645     0.382321     3.117433 H          1 UNL1 0.000
    41 H       1.514039     0.341935    -1.999064 H          1 UNL1 0.000
    42 H       0.287181     0.366101    -4.099009 H          1 UNL1 0.000
    43 H      -2.194703     0.444874    -4.095272 H          1 UNL1 0.000
    44 H      -3.411872     0.499505    -1.982177 H          1 UNL1 0.000
    45 C       1.936727     0.427000     0.555752 C          1 UNL1 0.000
    46 N       2.540897    -0.787542     0.485427 N          1 UNL1 0.000
    47 C       3.893431    -0.773511     0.474523 C          1 UNL1 0.000
    48 C       4.625903     0.399775     0.532452 C          1 UNL1 0.000
    49 N       4.040682     1.615924     0.604252 N          1 UNL1 0.000
    50 C       2.684500     1.602302     0.613152 C          1 UNL1 0.000
    51 H       4.377111    -1.741927     0.415762 H          1 UNL1 0.000
    52 H       5.709901     0.392157     0.521625 H          1 UNL1 0.000
    53 H       2.206702     2.574995     0.667365 H          1 UNL1 0.000
@<TRIPOS>BOND
     1      1      2   2
     2      2      3   1
     3      3      4   2
     4      4      5   1
     5      5      6   2
     6      6      1   1
     7      4      7   1
     8      7      8   1
     9      8      9   2
    10      9     10   1
    11     10     11   2
    12     11     12   1
    13     12     13   2
    14     13      8   1
    15      3     14   1
    16      9     14   1
    17     15     16   2
    18     16     17   1
    19     17     18   2
    20     18     19   1
    21     19     20   2
    22     20     15   1
    23     19     21   1
    24     21     22   2
    25     22     23   1
    26     23     24   2
    27     24     20   1
    28     22     25   1
    29     25     26   2
    30     26     27   1
    31     27     28   2
    32     28     23   1
    33      7     24   1
    34      1     29   1
    35      2     30   1
    36      5     31   1
    37      6     32   1
    38     10     33   1
    39     11     34   1
    40     12     35   1
    41     13     36   1
    42     15     37   1
    43     16     38   1
    44     17     39   1
    45     18     40   1
    46     25     41   1
    47     26     42   1
    48     27     43   1
    49     28     44   1
    50     45     46   2
    51     46     47   1
    52     47     48   2
    53     48     49   1
    54     49     50   2
    55     50     45   1
    56     47     51   1
    57     48     52   1
    58     50     53   1
    59     21     45   1
