# Produced with molli package
@<TRIPOS>MOLECULE
I_3_R
56 62 0 0 0
SMALL
USER_CHARGES

@<TRIPOS>ATOM
     1 C      -6.138969     4.028696     0.591210 C          1 UNL1 0.000
     2 C      -6.759818     2.782486     0.617742 C          1 UNL1 0.000
     3 C      -5.989075     1.615846     0.605909 C          1 UNL1 0.000
     4 C      -4.586375     1.672210     0.569331 C          1 UNL1 0.000
     5 C      -3.979429     2.939374     0.539647 C          1 UNL1 0.000
     6 C      -4.749537     4.106944     0.551134 C          1 UNL1 0.000
     7 N      -3.836947     0.449381     0.566155 N          1 UNL1 0.000
     8 C      -4.572902    -0.781667     0.594673 C          1 UNL1 0.000
     9 C      -5.976268    -0.740125     0.626069 C          1 UNL1 0.000
    10 C      -6.734344    -1.914818     0.653688 C          1 UNL1 0.000
    11 C      -6.099792    -3.154408     0.649874 C          1 UNL1 0.000
    12 C      -4.709386    -3.217931     0.619381 C          1 UNL1 0.000
    13 C      -3.951910    -2.042416     0.592723 C          1 UNL1 0.000
    14 O      -6.693818     0.434179     0.634085 O          1 UNL1 0.000
    15 C      -2.365363     0.536123     3.053303 C          1 UNL1 0.000
    16 C      -1.686288     0.571465     4.269179 C          1 UNL1 0.000
    17 C      -0.304493     0.562082     4.274146 C          1 UNL1 0.000
    18 C       0.386148     0.524026     3.062772 C          1 UNL1 0.000
    19 C      -0.275646     0.500885     1.805563 C          1 UNL1 0.000
    20 C      -1.689610     0.498261     1.807060 C          1 UNL1 0.000
    21 C       0.426989     0.475772     0.558570 C          1 UNL1 0.000
    22 C      -0.279313     0.416236    -0.684847 C          1 UNL1 0.000
    23 C      -1.693471     0.412215    -0.682362 C          1 UNL1 0.000
    24 C      -2.387436     0.456115     0.563154 C          1 UNL1 0.000
    25 C       0.379240     0.361457    -1.942264 C          1 UNL1 0.000
    26 C      -0.314806     0.310827    -3.151271 C          1 UNL1 0.000
    27 C      -1.696862     0.314901    -3.143129 C          1 UNL1 0.000
    28 C      -2.373054     0.364823    -1.926013 C          1 UNL1 0.000
    29 H      -6.737195     4.935993     0.601245 H          1 UNL1 0.000
    30 H      -7.843870     2.715472     0.648378 H          1 UNL1 0.000
    31 H      -2.898137     3.039742     0.507630 H          1 UNL1 0.000
    32 H      -4.259743     5.077333     0.529119 H          1 UNL1 0.000
    33 H      -7.819154    -1.859507     0.678291 H          1 UNL1 0.000
    34 H      -6.687667    -4.068225     0.670868 H          1 UNL1 0.000
    35 H      -4.207970    -4.182741     0.616049 H          1 UNL1 0.000
    36 H      -2.869031    -2.132615     0.569103 H          1 UNL1 0.000
    37 H      -3.453839     0.534758     3.088054 H          1 UNL1 0.000
    38 H      -2.241650     0.597418     5.202657 H          1 UNL1 0.000
    39 H       0.240850     0.576681     5.213845 H          1 UNL1 0.000
    40 H       1.472859     0.496509     3.118084 H          1 UNL1 0.000
    41 H       1.466294     0.339982    -1.997009 H          1 UNL1 0.000
    42 H       0.228530     0.261843    -4.090950 H          1 UNL1 0.000
    43 H      -2.254230     0.272991    -4.074814 H          1 UNL1 0.000
    44 H      -3.461659     0.361936    -1.956933 H          1 UNL1 0.000
    45 C       1.902412     0.541067     0.554237 C          1 UNL1 0.000
    46 N       2.551496    -0.646681     0.439856 N          1 UNL1 0.000
    47 C       3.907736    -0.626448     0.435798 C          1 UNL1 0.000
    48 C       4.645236     0.540583     0.548430 C          1 UNL1 0.000
    49 C       3.975421     1.759080     0.665830 C          1 UNL1 0.000
    50 C       2.580666     1.757629     0.663985 C          1 UNL1 0.000
    51 N       6.097925     0.481212     0.546571 N          1 UNL1 0.000
    52 O       6.712814     1.495766     0.902997 O          1 UNL1 0.000
    53 O       6.630559    -0.577916     0.188372 O          1 UNL1 0.000
    54 H       4.371608    -1.605383     0.341416 H          1 UNL1 0.000
    55 H       4.513913     2.699415     0.756107 H          1 UNL1 0.000
    56 H       2.029010     2.689649     0.752398 H          1 UNL1 0.000
@<TRIPOS>BOND
     1      1      2   2
     2      2      3   1
     3      3      4   2
     4      4      5   1
     5      5      6   2
     6      6      1   1
     7      4      7   1
     8      7      8   1
     9      8      9   2
    10      9     10   1
    11     10     11   2
    12     11     12   1
    13     12     13   2
    14     13      8   1
    15      3     14   1
    16      9     14   1
    17     15     16   2
    18     16     17   1
    19     17     18   2
    20     18     19   1
    21     19     20   2
    22     20     15   1
    23     19     21   1
    24     21     22   2
    25     22     23   1
    26     23     24   2
    27     24     20   1
    28     22     25   1
    29     25     26   2
    30     26     27   1
    31     27     28   2
    32     28     23   1
    33      7     24   1
    34      1     29   1
    35      2     30   1
    36      5     31   1
    37      6     32   1
    38     10     33   1
    39     11     34   1
    40     12     35   1
    41     13     36   1
    42     15     37   1
    43     16     38   1
    44     17     39   1
    45     18     40   1
    46     25     41   1
    47     26     42   1
    48     27     43   1
    49     28     44   1
    50     45     46   2
    51     46     47   1
    52     47     48   2
    53     48     49   1
    54     49     50   2
    55     50     45   1
    56     51     52   2
    57     51     53   1
    58     48     51   1
    59     47     54   1
    60     49     55   1
    61     50     56   1
    62     21     45   1
