# Produced with molli package
@<TRIPOS>MOLECULE
I_3_O
54 60 0 0 0
SMALL
USER_CHARGES

@<TRIPOS>ATOM
     1 C      -6.184431     4.031040     0.531601 C          1 UNL1 0.000
     2 C      -6.782931     2.773690     0.541893 C          1 UNL1 0.000
     3 C      -5.991137     1.621288     0.526335 C          1 UNL1 0.000
     4 C      -4.589436     1.703293     0.500000 C          1 UNL1 0.000
     5 C      -4.005157     2.981246     0.488471 C          1 UNL1 0.000
     6 C      -4.796291     4.134586     0.504755 C          1 UNL1 0.000
     7 N      -3.818287     0.494442     0.488312 N          1 UNL1 0.000
     8 C      -4.531757    -0.749928     0.505360 C          1 UNL1 0.000
     9 C      -5.935690    -0.734226     0.532304 C          1 UNL1 0.000
    10 C      -6.672159    -1.922783     0.554136 C          1 UNL1 0.000
    11 C      -6.014966    -3.150566     0.548039 C          1 UNL1 0.000
    12 C      -4.623591    -3.188452     0.519339 C          1 UNL1 0.000
    13 C      -3.887816    -1.999125     0.498266 C          1 UNL1 0.000
    14 O      -6.674617     0.426827     0.541082 O          1 UNL1 0.000
    15 C      -2.355319     0.553212     2.983007 C          1 UNL1 0.000
    16 C      -1.679446     0.568205     4.201279 C          1 UNL1 0.000
    17 C      -0.297463     0.570492     4.209746 C          1 UNL1 0.000
    18 C       0.396217     0.564208     2.999725 C          1 UNL1 0.000
    19 C      -0.262307     0.561713     1.741092 C          1 UNL1 0.000
    20 C      -1.676084     0.547548     1.738022 C          1 UNL1 0.000
    21 C       0.444920     0.569124     0.497045 C          1 UNL1 0.000
    22 C      -0.256147     0.540092    -0.749823 C          1 UNL1 0.000
    23 C      -1.670343     0.523241    -0.753151 C          1 UNL1 0.000
    24 C      -2.368936     0.526190     0.490741 C          1 UNL1 0.000
    25 C       0.408392     0.526470    -2.004819 C          1 UNL1 0.000
    26 C      -0.280162     0.506152    -3.217863 C          1 UNL1 0.000
    27 C      -1.662470     0.496519    -3.215759 C          1 UNL1 0.000
    28 C      -2.344311     0.503308    -2.000628 C          1 UNL1 0.000
    29 H      -6.798871     4.927336     0.544626 H          1 UNL1 0.000
    30 H      -7.865760     2.686809     0.563002 H          1 UNL1 0.000
    31 H      -2.925406     3.100837     0.467322 H          1 UNL1 0.000
    32 H      -4.323515     5.113569     0.496706 H          1 UNL1 0.000
    33 H      -7.757806    -1.887425     0.576668 H          1 UNL1 0.000
    34 H      -6.585847    -4.075113     0.565632 H          1 UNL1 0.000
    35 H      -4.104119    -4.143631     0.513724 H          1 UNL1 0.000
    36 H      -2.803263    -2.069126     0.476319 H          1 UNL1 0.000
    37 H      -3.443745     0.543054     3.014285 H          1 UNL1 0.000
    38 H      -2.236951     0.569977     5.133626 H          1 UNL1 0.000
    39 H       0.246658     0.570216     5.150046 H          1 UNL1 0.000
    40 H       1.483828     0.546490     3.054141 H          1 UNL1 0.000
    41 H       1.496520     0.516469    -2.052612 H          1 UNL1 0.000
    42 H       0.268243     0.491261    -4.155599 H          1 UNL1 0.000
    43 H      -2.215325     0.477291    -4.150731 H          1 UNL1 0.000
    44 H      -3.432640     0.489675    -2.035900 H          1 UNL1 0.000
    45 C       1.920636     0.630373     0.502207 C          1 UNL1 0.000
    46 N       2.563662    -0.561644     0.436860 N          1 UNL1 0.000
    47 C       3.913833    -0.539339     0.453925 C          1 UNL1 0.000
    48 C       4.664885     0.621101     0.534903 C          1 UNL1 0.000
    49 C       3.992905     1.835699     0.599289 C          1 UNL1 0.000
    50 C       2.600965     1.845374     0.581083 C          1 UNL1 0.000
    51 H       4.391624    -1.513479     0.400238 H          1 UNL1 0.000
    52 H       5.748209     0.578392     0.548034 H          1 UNL1 0.000
    53 H       4.546590     2.767850     0.665264 H          1 UNL1 0.000
    54 H       2.055013     2.781978     0.633448 H          1 UNL1 0.000
@<TRIPOS>BOND
     1      1      2   2
     2      2      3   1
     3      3      4   2
     4      4      5   1
     5      5      6   2
     6      6      1   1
     7      4      7   1
     8      7      8   1
     9      8      9   2
    10      9     10   1
    11     10     11   2
    12     11     12   1
    13     12     13   2
    14     13      8   1
    15      3     14   1
    16      9     14   1
    17     15     16   2
    18     16     17   1
    19     17     18   2
    20     18     19   1
    21     19     20   2
    22     20     15   1
    23     19     21   1
    24     21     22   2
    25     22     23   1
    26     23     24   2
    27     24     20   1
    28     22     25   1
    29     25     26   2
    30     26     27   1
    31     27     28   2
    32     28     23   1
    33      7     24   1
    34      1     29   1
    35      2     30   1
    36      5     31   1
    37      6     32   1
    38     10     33   1
    39     11     34   1
    40     12     35   1
    41     13     36   1
    42     15     37   1
    43     16     38   1
    44     17     39   1
    45     18     40   1
    46     25     41   1
    47     26     42   1
    48     27     43   1
    49     28     44   1
    50     45     46   2
    51     46     47   1
    52     47     48   2
    53     48     49   1
    54     49     50   2
    55     50     45   1
    56     47     51   1
    57     48     52   1
    58     49     53   1
    59     50     54   1
    60     21     45   1
