# Produced with molli package
@<TRIPOS>MOLECULE
I_3_S
60 66 0 0 0
SMALL
USER_CHARGES

@<TRIPOS>ATOM
     1 C      -6.049964     4.039395     0.586314 C          1 UNL1 0.000
     2 C      -6.668834     2.792143     0.610413 C          1 UNL1 0.000
     3 C      -5.897461     1.626758     0.564237 C          1 UNL1 0.000
     4 C      -4.495955     1.685408     0.497117 C          1 UNL1 0.000
     5 C      -3.890932     2.953582     0.472362 C          1 UNL1 0.000
     6 C      -4.661860     4.119842     0.516066 C          1 UNL1 0.000
     7 N      -3.745523     0.463481     0.458024 N          1 UNL1 0.000
     8 C      -4.480111    -0.768325     0.472237 C          1 UNL1 0.000
     9 C      -5.882307    -0.729078     0.539184 C          1 UNL1 0.000
    10 C      -6.638871    -1.904892     0.559070 C          1 UNL1 0.000
    11 C      -6.004094    -3.143304     0.508392 C          1 UNL1 0.000
    12 C      -4.614954    -3.204613     0.438767 C          1 UNL1 0.000
    13 C      -3.858970    -2.027910     0.421903 C          1 UNL1 0.000
    14 O      -6.600120     0.443870     0.592618 O          1 UNL1 0.000
    15 C      -2.280069     0.469713     2.950552 C          1 UNL1 0.000
    16 C      -1.604118     0.472909     4.168720 C          1 UNL1 0.000
    17 C      -0.222417     0.480858     4.176654 C          1 UNL1 0.000
    18 C       0.470904     0.485402     2.966215 C          1 UNL1 0.000
    19 C      -0.187429     0.485516     1.707187 C          1 UNL1 0.000
    20 C      -1.601320     0.476479     1.705079 C          1 UNL1 0.000
    21 C       0.519648     0.492921     0.461781 C          1 UNL1 0.000
    22 C      -0.184149     0.495176    -0.784749 C          1 UNL1 0.000
    23 C      -1.598522     0.481618    -0.785903 C          1 UNL1 0.000
    24 C      -2.295764     0.473287     0.458412 C          1 UNL1 0.000
    25 C       0.477324     0.512178    -2.041405 C          1 UNL1 0.000
    26 C      -0.213996     0.507540    -3.253080 C          1 UNL1 0.000
    27 C      -1.596058     0.488385    -3.248226 C          1 UNL1 0.000
    28 C      -2.275277     0.477459    -2.031825 C          1 UNL1 0.000
    29 H      -6.648382     4.945876     0.621760 H          1 UNL1 0.000
    30 H      -7.751832     2.723532     0.665388 H          1 UNL1 0.000
    31 H      -2.810582     3.056195     0.417257 H          1 UNL1 0.000
    32 H      -4.173133     5.090907     0.495282 H          1 UNL1 0.000
    33 H      -7.722638    -1.851125     0.614111 H          1 UNL1 0.000
    34 H      -6.591177    -4.057802     0.522886 H          1 UNL1 0.000
    35 H      -4.114126    -4.168693     0.397405 H          1 UNL1 0.000
    36 H      -2.777275    -2.115195     0.366536 H          1 UNL1 0.000
    37 H      -3.368509     0.462446     2.982881 H          1 UNL1 0.000
    38 H      -2.161589     0.469361     5.101223 H          1 UNL1 0.000
    39 H       0.321526     0.484353     5.117208 H          1 UNL1 0.000
    40 H       1.558017     0.491139     3.022490 H          1 UNL1 0.000
    41 H       1.564504     0.532822    -2.094340 H          1 UNL1 0.000
    42 H       0.331757     0.520616    -4.192574 H          1 UNL1 0.000
    43 H      -2.151025     0.484620    -4.182274 H          1 UNL1 0.000
    44 H      -3.363780     0.465912    -2.065005 H          1 UNL1 0.000
    45 C       2.002021     0.490542     0.466715 C          1 UNL1 0.000
    46 C       2.721767     1.688950     0.564808 C          1 UNL1 0.000
    47 C       4.119607     1.678273     0.596321 C          1 UNL1 0.000
    48 C       4.829957     0.470736     0.525073 C          1 UNL1 0.000
    49 C       4.117400    -0.726450     0.403280 C          1 UNL1 0.000
    50 C       2.716655    -0.714586     0.382298 C          1 UNL1 0.000
    51 C       6.323715     0.536881     0.581537 C          1 UNL1 0.000
    52 C       7.148676    -0.722618     0.665942 C          1 UNL1 0.000
    53 O       6.879075     1.633856     0.549050 O          1 UNL1 0.000
    54 H       2.194934     2.639699     0.625959 H          1 UNL1 0.000
    55 H       4.652213     2.624545     0.681289 H          1 UNL1 0.000
    56 H       4.612668    -1.687780     0.318069 H          1 UNL1 0.000
    57 H       2.176993    -1.657062     0.298874 H          1 UNL1 0.000
    58 H       7.612896    -0.912158    -0.305287 H          1 UNL1 0.000
    59 H       6.578752    -1.598066     0.974360 H          1 UNL1 0.000
    60 H       7.928246    -0.574964     1.420226 H          1 UNL1 0.000
@<TRIPOS>BOND
     1      1      2   2
     2      2      3   1
     3      3      4   2
     4      4      5   1
     5      5      6   2
     6      6      1   1
     7      4      7   1
     8      7      8   1
     9      8      9   2
    10      9     10   1
    11     10     11   2
    12     11     12   1
    13     12     13   2
    14     13      8   1
    15      3     14   1
    16      9     14   1
    17     15     16   2
    18     16     17   1
    19     17     18   2
    20     18     19   1
    21     19     20   2
    22     20     15   1
    23     19     21   1
    24     21     22   2
    25     22     23   1
    26     23     24   2
    27     24     20   1
    28     22     25   1
    29     25     26   2
    30     26     27   1
    31     27     28   2
    32     28     23   1
    33      7     24   1
    34      1     29   1
    35      2     30   1
    36      5     31   1
    37      6     32   1
    38     10     33   1
    39     11     34   1
    40     12     35   1
    41     13     36   1
    42     15     37   1
    43     16     38   1
    44     17     39   1
    45     18     40   1
    46     25     41   1
    47     26     42   1
    48     27     43   1
    49     28     44   1
    50     45     46   2
    51     46     47   1
    52     47     48   2
    53     48     49   1
    54     49     50   2
    55     50     45   1
    56     48     51   1
    57     51     52   1
    58     51     53   2
    59     46     54   1
    60     47     55   1
    61     49     56   1
    62     50     57   1
    63     52     58   1
    64     52     59   1
    65     52     60   1
    66     21     45   1
