# Produced with molli package
@<TRIPOS>MOLECULE
I_3_L
59 66 0 0 0
SMALL
USER_CHARGES

@<TRIPOS>ATOM
     1 C      -6.102738     4.048572     0.629123 C          1 UNL1 0.000
     2 C      -6.703288     2.792204     0.623920 C          1 UNL1 0.000
     3 C      -5.914328     1.639506     0.559893 C          1 UNL1 0.000
     4 C      -4.513325     1.720064     0.502976 C          1 UNL1 0.000
     5 C      -3.926989     2.997064     0.506950 C          1 UNL1 0.000
     6 C      -4.715469     4.150755     0.569475 C          1 UNL1 0.000
     7 N      -3.745050     0.510473     0.445697 N          1 UNL1 0.000
     8 C      -4.461204    -0.732374     0.437940 C          1 UNL1 0.000
     9 C      -5.864029    -0.715220     0.496426 C          1 UNL1 0.000
    10 C      -6.602390    -1.902760     0.496349 C          1 UNL1 0.000
    11 C      -5.948353    -3.130728     0.434682 C          1 UNL1 0.000
    12 C      -4.558121    -3.169967     0.373279 C          1 UNL1 0.000
    13 C      -3.820482    -1.981730     0.375590 C          1 UNL1 0.000
    14 O      -6.599720     0.446011     0.560834 O          1 UNL1 0.000
    15 C      -2.289443     0.510487     2.945321 C          1 UNL1 0.000
    16 C      -1.617526     0.507174     4.165864 C          1 UNL1 0.000
    17 C      -0.235841     0.525585     4.178735 C          1 UNL1 0.000
    18 C       0.461564     0.543622     2.970892 C          1 UNL1 0.000
    19 C      -0.192750     0.542639     1.710062 C          1 UNL1 0.000
    20 C      -1.606336     0.530920     1.702319 C          1 UNL1 0.000
    21 C       0.519160     0.551755     0.468031 C          1 UNL1 0.000
    22 C      -0.179099     0.562405    -0.781471 C          1 UNL1 0.000
    23 C      -1.593271     0.560354    -0.788965 C          1 UNL1 0.000
    24 C      -2.295536     0.538350     0.452544 C          1 UNL1 0.000
    25 C       0.488610     0.571838    -2.034853 C          1 UNL1 0.000
    26 C      -0.196875     0.586546    -3.249714 C          1 UNL1 0.000
    27 C      -1.579138     0.590555    -3.251329 C          1 UNL1 0.000
    28 C      -2.264270     0.576520    -2.038095 C          1 UNL1 0.000
    29 H      -6.714739     4.945237     0.679323 H          1 UNL1 0.000
    30 H      -7.785393     2.706412     0.670455 H          1 UNL1 0.000
    31 H      -2.847732     3.115963     0.461155 H          1 UNL1 0.000
    32 H      -4.240984     5.129019     0.571997 H          1 UNL1 0.000
    33 H      -7.687159    -1.866374     0.545109 H          1 UNL1 0.000
    34 H      -6.521103    -4.054292     0.434471 H          1 UNL1 0.000
    35 H      -4.041646    -4.125393     0.323697 H          1 UNL1 0.000
    36 H      -2.737165    -2.051961     0.326408 H          1 UNL1 0.000
    37 H      -3.377816     0.497621     2.973426 H          1 UNL1 0.000
    38 H      -2.177965     0.492199     5.096340 H          1 UNL1 0.000
    39 H       0.305654     0.526289     5.120582 H          1 UNL1 0.000
    40 H       1.548922     0.560612     3.028957 H          1 UNL1 0.000
    41 H       1.576689     0.568329    -2.081158 H          1 UNL1 0.000
    42 H       0.354312     0.595472    -4.185979 H          1 UNL1 0.000
    43 H      -2.129437     0.603314    -4.187938 H          1 UNL1 0.000
    44 H      -3.352554     0.578626    -2.076009 H          1 UNL1 0.000
    45 C       2.002266     0.542783     0.478584 C          1 UNL1 0.000
    46 C       2.703853    -0.669837     0.562801 C          1 UNL1 0.000
    47 C       4.102387    -0.711420     0.589374 C          1 UNL1 0.000
    48 C       4.785108     0.507074     0.523217 C          1 UNL1 0.000
    49 C       4.129629     1.734430     0.433235 C          1 UNL1 0.000
    50 C       2.721330     1.752069     0.412797 C          1 UNL1 0.000
    51 N       6.136742     0.770008     0.530895 N          1 UNL1 0.000
    52 C       6.357085     2.119089     0.443582 C          1 UNL1 0.000
    53 C       5.131689     2.742231     0.381318 C          1 UNL1 0.000
    54 H       2.150892    -1.606813     0.614943 H          1 UNL1 0.000
    55 H       4.628829    -1.657466     0.660087 H          1 UNL1 0.000
    56 H       2.193224     2.699792     0.346604 H          1 UNL1 0.000
    57 H       6.857212     0.064012     0.591937 H          1 UNL1 0.000
    58 H       7.362539     2.517696     0.433919 H          1 UNL1 0.000
    59 H       4.969364     3.809479     0.306957 H          1 UNL1 0.000
@<TRIPOS>BOND
     1      1      2   2
     2      2      3   1
     3      3      4   2
     4      4      5   1
     5      5      6   2
     6      6      1   1
     7      4      7   1
     8      7      8   1
     9      8      9   2
    10      9     10   1
    11     10     11   2
    12     11     12   1
    13     12     13   2
    14     13      8   1
    15      3     14   1
    16      9     14   1
    17     15     16   2
    18     16     17   1
    19     17     18   2
    20     18     19   1
    21     19     20   2
    22     20     15   1
    23     19     21   1
    24     21     22   2
    25     22     23   1
    26     23     24   2
    27     24     20   1
    28     22     25   1
    29     25     26   2
    30     26     27   1
    31     27     28   2
    32     28     23   1
    33      7     24   1
    34      1     29   1
    35      2     30   1
    36      5     31   1
    37      6     32   1
    38     10     33   1
    39     11     34   1
    40     12     35   1
    41     13     36   1
    42     15     37   1
    43     16     38   1
    44     17     39   1
    45     18     40   1
    46     25     41   1
    47     26     42   1
    48     27     43   1
    49     28     44   1
    50     45     46   2
    51     46     47   1
    52     47     48   2
    53     48     49   1
    54     49     50   2
    55     50     45   1
    56     48     51   1
    57     51     52   1
    58     52     53   2
    59     53     49   1
    60     46     54   1
    61     47     55   1
    62     50     56   1
    63     51     57   1
    64     52     58   1
    65     53     59   1
    66     21     45   1
