# Produced with molli package
@<TRIPOS>MOLECULE
I_3_M
56 62 0 0 0
SMALL
USER_CHARGES

@<TRIPOS>ATOM
     1 C      -6.071612     4.057455     0.348466 C          1 UNL1 0.000
     2 C      -6.681748     2.806904     0.293949 C          1 UNL1 0.000
     3 C      -5.903515     1.646043     0.335426 C          1 UNL1 0.000
     4 C      -4.503625     1.712652     0.424606 C          1 UNL1 0.000
     5 C      -3.907358     2.983997     0.477701 C          1 UNL1 0.000
     6 C      -4.685313     4.145751     0.441828 C          1 UNL1 0.000
     7 N      -3.746145     0.495241     0.461399 N          1 UNL1 0.000
     8 C      -4.474228    -0.740789     0.449532 C          1 UNL1 0.000
     9 C      -5.875566    -0.709401     0.361333 C          1 UNL1 0.000
    10 C      -6.626702    -1.888829     0.348273 C          1 UNL1 0.000
    11 C      -5.987706    -3.123224     0.431369 C          1 UNL1 0.000
    12 C      -4.599509    -3.176847     0.522899 C          1 UNL1 0.000
    13 C      -3.848508    -1.996624     0.528555 C          1 UNL1 0.000
    14 O      -6.597888     0.459216     0.281291 O          1 UNL1 0.000
    15 C      -2.298088     0.494994     2.964584 C          1 UNL1 0.000
    16 C      -1.629730     0.494768     4.186947 C          1 UNL1 0.000
    17 C      -0.247814     0.507221     4.204129 C          1 UNL1 0.000
    18 C       0.453998     0.515964     2.998639 C          1 UNL1 0.000
    19 C      -0.196366     0.515322     1.735955 C          1 UNL1 0.000
    20 C      -1.610458     0.507538     1.724658 C          1 UNL1 0.000
    21 C       0.518717     0.522291     0.495609 C          1 UNL1 0.000
    22 C      -0.176404     0.542757    -0.755529 C          1 UNL1 0.000
    23 C      -1.590574     0.537909    -0.766008 C          1 UNL1 0.000
    24 C      -2.296524     0.512948     0.474241 C          1 UNL1 0.000
    25 C       0.494234     0.567641    -2.007602 C          1 UNL1 0.000
    26 C      -0.187972     0.592200    -3.224074 C          1 UNL1 0.000
    27 C      -1.569878     0.587299    -3.228964 C          1 UNL1 0.000
    28 C      -2.257541     0.557751    -2.017529 C          1 UNL1 0.000
    29 H      -6.675675     4.960443     0.319598 H          1 UNL1 0.000
    30 H      -7.763252     2.732068     0.221187 H          1 UNL1 0.000
    31 H      -2.828762     3.092269     0.552525 H          1 UNL1 0.000
    32 H      -4.203771     5.119447     0.487794 H          1 UNL1 0.000
    33 H      -7.709783    -1.840932     0.275915 H          1 UNL1 0.000
    34 H      -6.570735    -4.040419     0.425891 H          1 UNL1 0.000
    35 H      -4.095599    -4.137865     0.591382 H          1 UNL1 0.000
    36 H      -2.767574    -2.078498     0.602589 H          1 UNL1 0.000
    37 H      -3.386872     0.486673     2.988264 H          1 UNL1 0.000
    38 H      -2.193036     0.486331     5.115950 H          1 UNL1 0.000
    39 H       0.289622     0.510512     5.148485 H          1 UNL1 0.000
    40 H       1.540665     0.526915     3.061826 H          1 UNL1 0.000
    41 H       1.581807     0.571578    -2.053342 H          1 UNL1 0.000
    42 H       0.364350     0.615035    -4.159531 H          1 UNL1 0.000
    43 H      -2.118541     0.606281    -4.166566 H          1 UNL1 0.000
    44 H      -3.345670     0.552954    -2.060116 H          1 UNL1 0.000
    45 C       2.000690     0.493567     0.507785 C          1 UNL1 0.000
    46 C       2.688257    -0.731266     0.523731 C          1 UNL1 0.000
    47 C       4.085393    -0.765760     0.540372 C          1 UNL1 0.000
    48 C       4.815488     0.426344     0.540052 C          1 UNL1 0.000
    49 C       4.142188     1.651841     0.522048 C          1 UNL1 0.000
    50 C       2.744401     1.684498     0.506369 C          1 UNL1 0.000
    51 C       6.248723     0.391672     0.559312 C          1 UNL1 0.000
    52 N       7.408695     0.362606     0.575666 N          1 UNL1 0.000
    53 H       2.130625    -1.666749     0.524881 H          1 UNL1 0.000
    54 H       4.594911    -1.727580     0.554331 H          1 UNL1 0.000
    55 H       4.697538     2.588064     0.520944 H          1 UNL1 0.000
    56 H       2.231825     2.645145     0.493365 H          1 UNL1 0.000
@<TRIPOS>BOND
     1      1      2   2
     2      2      3   1
     3      3      4   2
     4      4      5   1
     5      5      6   2
     6      6      1   1
     7      4      7   1
     8      7      8   1
     9      8      9   2
    10      9     10   1
    11     10     11   2
    12     11     12   1
    13     12     13   2
    14     13      8   1
    15      3     14   1
    16      9     14   1
    17     15     16   2
    18     16     17   1
    19     17     18   2
    20     18     19   1
    21     19     20   2
    22     20     15   1
    23     19     21   1
    24     21     22   2
    25     22     23   1
    26     23     24   2
    27     24     20   1
    28     22     25   1
    29     25     26   2
    30     26     27   1
    31     27     28   2
    32     28     23   1
    33      7     24   1
    34      1     29   1
    35      2     30   1
    36      5     31   1
    37      6     32   1
    38     10     33   1
    39     11     34   1
    40     12     35   1
    41     13     36   1
    42     15     37   1
    43     16     38   1
    44     17     39   1
    45     18     40   1
    46     25     41   1
    47     26     42   1
    48     27     43   1
    49     28     44   1
    50     45     46   2
    51     46     47   1
    52     47     48   2
    53     48     49   1
    54     49     50   2
    55     50     45   1
    56     51     52   3
    57     48     51   1
    58     46     53   1
    59     47     54   1
    60     49     55   1
    61     50     56   1
    62     21     45   1
