# Produced with molli package
@<TRIPOS>MOLECULE
I_3_K
57 63 0 0 0
SMALL
USER_CHARGES

@<TRIPOS>ATOM
     1 C      -6.099469     4.143284     0.505454 C          1 UNL1 0.000
     2 C      -6.739029     2.906369     0.490179 C          1 UNL1 0.000
     3 C      -5.985844     1.728408     0.509248 C          1 UNL1 0.000
     4 C      -4.582357     1.763951     0.539363 C          1 UNL1 0.000
     5 C      -3.956289     3.022110     0.553277 C          1 UNL1 0.000
     6 C      -4.708867     4.200950     0.537917 C          1 UNL1 0.000
     7 N      -3.851362     0.529864     0.557988 N          1 UNL1 0.000
     8 C      -4.606213    -0.689710     0.569491 C          1 UNL1 0.000
     9 C      -6.008946    -0.627232     0.541298 C          1 UNL1 0.000
    10 C      -6.785471    -1.789980     0.557020 C          1 UNL1 0.000
    11 C      -6.170471    -3.038440     0.603900 C          1 UNL1 0.000
    12 C      -4.781067    -3.122819     0.631702 C          1 UNL1 0.000
    13 C      -4.005064    -1.959185     0.612947 C          1 UNL1 0.000
    14 O      -6.708261     0.557218     0.497637 O          1 UNL1 0.000
    15 C      -2.404318     0.528699     3.061126 C          1 UNL1 0.000
    16 C      -1.736791     0.534753     4.283845 C          1 UNL1 0.000
    17 C      -0.354935     0.533884     4.301661 C          1 UNL1 0.000
    18 C       0.347487     0.525681     3.096458 C          1 UNL1 0.000
    19 C      -0.302315     0.516991     1.833332 C          1 UNL1 0.000
    20 C      -1.716265     0.520087     1.821241 C          1 UNL1 0.000
    21 C       0.412720     0.507704     0.593032 C          1 UNL1 0.000
    22 C      -0.281861     0.500649    -0.658755 C          1 UNL1 0.000
    23 C      -1.695917     0.507387    -0.669739 C          1 UNL1 0.000
    24 C      -2.401892     0.517065     0.570188 C          1 UNL1 0.000
    25 C       0.388933     0.488272    -1.910936 C          1 UNL1 0.000
    26 C      -0.293238     0.487090    -3.127676 C          1 UNL1 0.000
    27 C      -1.675192     0.496778    -3.132693 C          1 UNL1 0.000
    28 C      -2.363113     0.505631    -1.921091 C          1 UNL1 0.000
    29 H      -6.683928     5.059474     0.493117 H          1 UNL1 0.000
    30 H      -7.824091     2.855574     0.465287 H          1 UNL1 0.000
    31 H      -2.873360     3.107012     0.579340 H          1 UNL1 0.000
    32 H      -4.204200     5.163878     0.552041 H          1 UNL1 0.000
    33 H      -7.869416    -1.718214     0.534695 H          1 UNL1 0.000
    34 H      -6.773075    -3.942772     0.619172 H          1 UNL1 0.000
    35 H      -4.295659    -4.094991     0.669182 H          1 UNL1 0.000
    36 H      -2.923896    -2.064732     0.636611 H          1 UNL1 0.000
    37 H      -3.493112     0.531219     3.084919 H          1 UNL1 0.000
    38 H      -2.300826     0.541203     5.212449 H          1 UNL1 0.000
    39 H       0.181845     0.540116     5.246415 H          1 UNL1 0.000
    40 H       1.434061     0.526966     3.160895 H          1 UNL1 0.000
    41 H       1.476413     0.479092    -1.957275 H          1 UNL1 0.000
    42 H       0.259209     0.478717    -4.063374 H          1 UNL1 0.000
    43 H      -2.223526     0.496899    -4.070704 H          1 UNL1 0.000
    44 H      -3.451330     0.511899    -1.963089 H          1 UNL1 0.000
    45 C       1.895219     0.511256     0.605247 C          1 UNL1 0.000
    46 C       2.604527     1.727936     0.569938 C          1 UNL1 0.000
    47 C       3.999853     1.740540     0.585348 C          1 UNL1 0.000
    48 C       4.677822     0.521603     0.629902 C          1 UNL1 0.000
    49 C       4.007927    -0.702405     0.662097 C          1 UNL1 0.000
    50 C       2.612278    -0.700242     0.652714 C          1 UNL1 0.000
    51 N       6.124275     0.527018     0.643161 N          1 UNL1 0.000
    52 O       6.673718     0.890152     1.691276 O          1 UNL1 0.000
    53 O       6.696031     0.168771    -0.393504 O          1 UNL1 0.000
    54 H       2.060636     2.670872     0.529865 H          1 UNL1 0.000
    55 H       4.538527     2.684339     0.558743 H          1 UNL1 0.000
    56 H       4.553131    -1.642109     0.698430 H          1 UNL1 0.000
    57 H       2.074710    -1.647121     0.683160 H          1 UNL1 0.000
@<TRIPOS>BOND
     1      1      2   2
     2      2      3   1
     3      3      4   2
     4      4      5   1
     5      5      6   2
     6      6      1   1
     7      4      7   1
     8      7      8   1
     9      8      9   2
    10      9     10   1
    11     10     11   2
    12     11     12   1
    13     12     13   2
    14     13      8   1
    15      3     14   1
    16      9     14   1
    17     15     16   2
    18     16     17   1
    19     17     18   2
    20     18     19   1
    21     19     20   2
    22     20     15   1
    23     19     21   1
    24     21     22   2
    25     22     23   1
    26     23     24   2
    27     24     20   1
    28     22     25   1
    29     25     26   2
    30     26     27   1
    31     27     28   2
    32     28     23   1
    33      7     24   1
    34      1     29   1
    35      2     30   1
    36      5     31   1
    37      6     32   1
    38     10     33   1
    39     11     34   1
    40     12     35   1
    41     13     36   1
    42     15     37   1
    43     16     38   1
    44     17     39   1
    45     18     40   1
    46     25     41   1
    47     26     42   1
    48     27     43   1
    49     28     44   1
    50     45     46   2
    51     46     47   1
    52     47     48   2
    53     48     49   1
    54     49     50   2
    55     50     45   1
    56     51     52   2
    57     51     53   1
    58     48     51   1
    59     46     54   1
    60     47     55   1
    61     49     56   1
    62     50     57   1
    63     21     45   1
