# Produced with molli package
@<TRIPOS>MOLECULE
I_4_Q
45 49 0 0 0
SMALL
USER_CHARGES

@<TRIPOS>ATOM
     1 C      -5.302708     4.099887     1.637901 C          1 UNL1 0.000
     2 C      -5.945066     2.864453     1.645359 C          1 UNL1 0.000
     3 C      -5.195596     1.685044     1.706300 C          1 UNL1 0.000
     4 C      -3.792532     1.716343     1.759380 C          1 UNL1 0.000
     5 C      -3.164482     2.974371     1.754047 C          1 UNL1 0.000
     6 C      -3.912915     4.154737     1.693399 C          1 UNL1 0.000
     7 N      -3.064736     0.482002     1.813168 N          1 UNL1 0.000
     8 C      -3.821809    -0.734332     1.800173 C          1 UNL1 0.000
     9 C      -5.224437    -0.669535     1.749894 C          1 UNL1 0.000
    10 C      -6.004056    -1.830496     1.735876 C          1 UNL1 0.000
    11 C      -5.392900    -3.080909     1.771598 C          1 UNL1 0.000
    12 C      -4.004222    -3.168672     1.821031 C          1 UNL1 0.000
    13 C      -3.225204    -2.006405     1.835160 C          1 UNL1 0.000
    14 O      -5.921656     0.516255     1.708039 O          1 UNL1 0.000
    15 C      -1.636727     0.469692     1.820230 C          1 UNL1 0.000
    16 C      -0.933737     0.512251     3.029149 C          1 UNL1 0.000
    17 C       0.457429     0.530095     3.013222 C          1 UNL1 0.000
    18 C       1.158875     0.554758     1.807579 C          1 UNL1 0.000
    19 C       0.479272     0.504912     0.579847 C          1 UNL1 0.000
    20 C      -0.925560     0.447251     0.608331 C          1 UNL1 0.000
    21 O       1.180309     0.597475     4.173192 O          1 UNL1 0.000
    22 C       1.144766    -0.654527     4.859565 C          1 UNL1 0.000
    23 H      -5.884146     5.016695     1.588923 H          1 UNL1 0.000
    24 H      -7.029633     2.815361     1.602088 H          1 UNL1 0.000
    25 H      -2.082071     3.058494     1.796427 H          1 UNL1 0.000
    26 H      -3.405576     5.116333     1.688878 H          1 UNL1 0.000
    27 H      -7.087227    -1.755011     1.694776 H          1 UNL1 0.000
    28 H      -5.997808    -3.983649     1.758535 H          1 UNL1 0.000
    29 H      -3.521764    -4.142628     1.845948 H          1 UNL1 0.000
    30 H      -2.144628    -2.114779     1.869814 H          1 UNL1 0.000
    31 H      -1.475643     0.545771     3.969607 H          1 UNL1 0.000
    32 H       2.245856     0.586136     1.839925 H          1 UNL1 0.000
    33 H      -1.481930     0.405471    -0.327733 H          1 UNL1 0.000
    34 H       1.872770    -0.609009     5.675144 H          1 UNL1 0.000
    35 H       1.430670    -1.481012     4.198466 H          1 UNL1 0.000
    36 H       0.157310    -0.836863     5.295612 H          1 UNL1 0.000
    37 C       1.201715     0.510808    -0.697804 C          1 UNL1 0.000
    38 N       0.790926    -0.391335    -1.627070 N          1 UNL1 0.000
    39 C       1.470191    -0.392229    -2.797774 C          1 UNL1 0.000
    40 C       2.517206     0.476200    -3.051912 C          1 UNL1 0.000
    41 N       2.934833     1.387188    -2.147413 N          1 UNL1 0.000
    42 C       2.255244     1.383252    -0.972576 C          1 UNL1 0.000
    43 H       1.146953    -1.120193    -3.532751 H          1 UNL1 0.000
    44 H       3.049951     0.461978    -3.995760 H          1 UNL1 0.000
    45 H       2.581693     2.125094    -0.251324 H          1 UNL1 0.000
@<TRIPOS>BOND
     1      1      2   2
     2      2      3   1
     3      3      4   2
     4      4      5   1
     5      5      6   2
     6      6      1   1
     7      4      7   1
     8      7      8   1
     9      8      9   2
    10      9     10   1
    11     10     11   2
    12     11     12   1
    13     12     13   2
    14     13      8   1
    15      3     14   1
    16      9     14   1
    17     15     16   2
    18     16     17   1
    19     17     18   2
    20     18     19   1
    21     19     20   2
    22     20     15   1
    23     21     22   1
    24     17     21   1
    25      7     15   1
    26      1     23   1
    27      2     24   1
    28      5     25   1
    29      6     26   1
    30     10     27   1
    31     11     28   1
    32     12     29   1
    33     13     30   1
    34     16     31   1
    35     18     32   1
    36     20     33   1
    37     22     34   1
    38     22     35   1
    39     22     36   1
    40     37     38   2
    41     38     39   1
    42     39     40   2
    43     40     41   1
    44     41     42   2
    45     42     37   1
    46     39     43   1
    47     40     44   1
    48     42     45   1
    49     19     37   1
