# Produced with molli package
@<TRIPOS>MOLECULE
I_4_N
44 48 0 0 0
SMALL
USER_CHARGES

@<TRIPOS>ATOM
     1 C      -5.432253     4.110771     1.802031 C          1 UNL1 0.000
     2 C      -6.044559     2.860281     1.788762 C          1 UNL1 0.000
     3 C      -5.265492     1.698774     1.819691 C          1 UNL1 0.000
     4 C      -3.863152     1.762839     1.863382 C          1 UNL1 0.000
     5 C      -3.265540     3.035440     1.875543 C          1 UNL1 0.000
     6 C      -4.043835     4.198127     1.845664 C          1 UNL1 0.000
     7 N      -3.105605     0.545405     1.890186 N          1 UNL1 0.000
     8 C      -3.835062    -0.688192     1.866671 C          1 UNL1 0.000
     9 C      -5.238425    -0.656008     1.822253 C          1 UNL1 0.000
    10 C      -5.990516    -1.834993     1.796120 C          1 UNL1 0.000
    11 C      -5.349597    -3.070950     1.816964 C          1 UNL1 0.000
    12 C      -3.959579    -3.126534     1.864447 C          1 UNL1 0.000
    13 C      -3.208223    -1.946351     1.889282 C          1 UNL1 0.000
    14 O      -5.963728     0.513150     1.799696 O          1 UNL1 0.000
    15 C      -1.677601     0.562959     1.859859 C          1 UNL1 0.000
    16 C      -0.941016     0.626695     3.051161 C          1 UNL1 0.000
    17 C       0.450822     0.657798     2.999012 C          1 UNL1 0.000
    18 C       1.122725     0.662617     1.778583 C          1 UNL1 0.000
    19 C       0.396768     0.580509     0.588176 C          1 UNL1 0.000
    20 C      -1.000944     0.529057     0.629190 C          1 UNL1 0.000
    21 O       1.194087     0.745403     4.143619 O          1 UNL1 0.000
    22 C       1.308453    -0.536219     4.763626 C          1 UNL1 0.000
    23 H      -6.036519     5.013891     1.777995 H          1 UNL1 0.000
    24 H      -7.127797     2.785507     1.753191 H          1 UNL1 0.000
    25 H      -2.185198     3.145212     1.909194 H          1 UNL1 0.000
    26 H      -3.560229     5.171965     1.856497 H          1 UNL1 0.000
    27 H      -7.075168    -1.784880     1.759188 H          1 UNL1 0.000
    28 H      -5.933422    -3.987520     1.796759 H          1 UNL1 0.000
    29 H      -3.454649    -4.089278     1.882383 H          1 UNL1 0.000
    30 H      -2.126017    -2.029799     1.928159 H          1 UNL1 0.000
    31 H      -1.455750     0.663290     4.006875 H          1 UNL1 0.000
    32 H       2.208307     0.713491     1.764544 H          1 UNL1 0.000
    33 H      -1.576570     0.482484    -0.293013 H          1 UNL1 0.000
    34 H       2.244927    -0.551242     5.329591 H          1 UNL1 0.000
    35 H       1.342628    -1.358070     4.037850 H          1 UNL1 0.000
    36 H       0.479965    -0.686016     5.462591 H          1 UNL1 0.000
    37 C       1.096810     0.561438    -0.682763 C          1 UNL1 0.000
    38 C       1.137371    -0.576014    -1.464070 C          1 UNL1 0.000
    39 S       2.044055    -0.345321    -2.898139 S          1 UNL1 0.000
    40 C       2.390642     1.277644    -2.483380 C          1 UNL1 0.000
    41 C       1.832711     1.633518    -1.275013 C          1 UNL1 0.000
    42 H       0.686847    -1.539147    -1.264503 H          1 UNL1 0.000
    43 H       2.987844     1.891535    -3.143380 H          1 UNL1 0.000
    44 H       1.940148     2.619693    -0.839392 H          1 UNL1 0.000
@<TRIPOS>BOND
     1      1      2   2
     2      2      3   1
     3      3      4   2
     4      4      5   1
     5      5      6   2
     6      6      1   1
     7      4      7   1
     8      7      8   1
     9      8      9   2
    10      9     10   1
    11     10     11   2
    12     11     12   1
    13     12     13   2
    14     13      8   1
    15      3     14   1
    16      9     14   1
    17     15     16   2
    18     16     17   1
    19     17     18   2
    20     18     19   1
    21     19     20   2
    22     20     15   1
    23     21     22   1
    24     17     21   1
    25      7     15   1
    26      1     23   1
    27      2     24   1
    28      5     25   1
    29      6     26   1
    30     10     27   1
    31     11     28   1
    32     12     29   1
    33     13     30   1
    34     16     31   1
    35     18     32   1
    36     20     33   1
    37     22     34   1
    38     22     35   1
    39     22     36   1
    40     37     38   2
    41     38     39   1
    42     39     40   1
    43     40     41   2
    44     41     37   1
    45     38     42   1
    46     40     43   1
    47     41     44   1
    48     19     37   1
