# Produced with molli package
@<TRIPOS>MOLECULE
I_4_R
48 52 0 0 0
SMALL
USER_CHARGES

@<TRIPOS>ATOM
     1 C      -5.357903     4.053745     1.881044 C          1 UNL1 0.000
     2 C      -5.969371     2.802892     1.865602 C          1 UNL1 0.000
     3 C      -5.190505     1.642630     1.803256 C          1 UNL1 0.000
     4 C      -3.788380     1.708381     1.757720 C          1 UNL1 0.000
     5 C      -3.191854     2.981625     1.771909 C          1 UNL1 0.000
     6 C      -3.969660     4.142975     1.833342 C          1 UNL1 0.000
     7 N      -3.029906     0.492591     1.694622 N          1 UNL1 0.000
     8 C      -3.758524    -0.740963     1.667618 C          1 UNL1 0.000
     9 C      -5.162530    -0.710582     1.719399 C          1 UNL1 0.000
    10 C      -5.915315    -1.889165     1.703345 C          1 UNL1 0.000
    11 C      -5.275439    -3.123433     1.632734 C          1 UNL1 0.000
    12 C      -3.885229    -3.177170     1.577107 C          1 UNL1 0.000
    13 C      -3.132932    -1.997190     1.594598 C          1 UNL1 0.000
    14 O      -5.887795     0.456728     1.791447 O          1 UNL1 0.000
    15 C      -1.601180     0.516281     1.687887 C          1 UNL1 0.000
    16 C      -0.890465     0.565043     2.894320 C          1 UNL1 0.000
    17 C       0.498206     0.631728     2.868525 C          1 UNL1 0.000
    18 C       1.188674     0.693795     1.659934 C          1 UNL1 0.000
    19 C       0.502350     0.635749     0.437125 C          1 UNL1 0.000
    20 C      -0.898783     0.530523     0.469708 C          1 UNL1 0.000
    21 O       1.229197     0.703707     4.021248 O          1 UNL1 0.000
    22 C       1.289442    -0.570030     4.664677 C          1 UNL1 0.000
    23 H      -5.962338     4.955644     1.929432 H          1 UNL1 0.000
    24 H      -7.052686     2.726823     1.901571 H          1 UNL1 0.000
    25 H      -2.111811     3.092653     1.734056 H          1 UNL1 0.000
    26 H      -3.486550     5.116896     1.843764 H          1 UNL1 0.000
    27 H      -6.999969    -1.839877     1.745833 H          1 UNL1 0.000
    28 H      -5.859414    -4.039911     1.619425 H          1 UNL1 0.000
    29 H      -3.380849    -4.138513     1.518136 H          1 UNL1 0.000
    30 H      -2.050599    -2.079341     1.546167 H          1 UNL1 0.000
    31 H      -1.424619     0.565107     3.839834 H          1 UNL1 0.000
    32 H       2.273918     0.762806     1.682229 H          1 UNL1 0.000
    33 H      -1.457803     0.482229    -0.463958 H          1 UNL1 0.000
    34 H       2.278802    -0.665177     5.122849 H          1 UNL1 0.000
    35 H       1.158550    -1.411044     3.972507 H          1 UNL1 0.000
    36 H       0.535514    -0.616144     5.455901 H          1 UNL1 0.000
    37 C       1.230407     0.686232    -0.835916 C          1 UNL1 0.000
    38 N       0.948302    -0.304783    -1.720809 N          1 UNL1 0.000
    39 C       1.635010    -0.322497    -2.891532 C          1 UNL1 0.000
    40 C       2.591470     0.623387    -3.221179 C          1 UNL1 0.000
    41 C       2.865820     1.651354    -2.320172 C          1 UNL1 0.000
    42 C       2.174183     1.679584    -1.109452 C          1 UNL1 0.000
    43 N       3.298709     0.530143    -4.488075 N          1 UNL1 0.000
    44 O       4.292880     1.252772    -4.643641 O          1 UNL1 0.000
    45 O       2.866439    -0.266303    -5.332326 O          1 UNL1 0.000
    46 H       1.378981    -1.148955    -3.550081 H          1 UNL1 0.000
    47 H       3.601046     2.421879    -2.538990 H          1 UNL1 0.000
    48 H       2.367989     2.472210    -0.391763 H          1 UNL1 0.000
@<TRIPOS>BOND
     1      1      2   2
     2      2      3   1
     3      3      4   2
     4      4      5   1
     5      5      6   2
     6      6      1   1
     7      4      7   1
     8      7      8   1
     9      8      9   2
    10      9     10   1
    11     10     11   2
    12     11     12   1
    13     12     13   2
    14     13      8   1
    15      3     14   1
    16      9     14   1
    17     15     16   2
    18     16     17   1
    19     17     18   2
    20     18     19   1
    21     19     20   2
    22     20     15   1
    23     21     22   1
    24     17     21   1
    25      7     15   1
    26      1     23   1
    27      2     24   1
    28      5     25   1
    29      6     26   1
    30     10     27   1
    31     11     28   1
    32     12     29   1
    33     13     30   1
    34     16     31   1
    35     18     32   1
    36     20     33   1
    37     22     34   1
    38     22     35   1
    39     22     36   1
    40     37     38   2
    41     38     39   1
    42     39     40   2
    43     40     41   1
    44     41     42   2
    45     42     37   1
    46     43     44   2
    47     43     45   1
    48     40     43   1
    49     39     46   1
    50     41     47   1
    51     42     48   1
    52     19     37   1
