# Produced with molli package
@<TRIPOS>MOLECULE
I_4_T
50 54 0 0 0
SMALL
USER_CHARGES

@<TRIPOS>ATOM
     1 C      -5.328879     4.054971     1.811704 C          1 UNL1 0.000
     2 C      -5.945330     2.807605     1.863323 C          1 UNL1 0.000
     3 C      -5.170756     1.643091     1.865090 C          1 UNL1 0.000
     4 C      -3.767944     1.701381     1.817552 C          1 UNL1 0.000
     5 C      -3.165950     2.970707     1.768676 C          1 UNL1 0.000
     6 C      -3.939835     4.136330     1.764391 C          1 UNL1 0.000
     7 N      -3.015580     0.481479     1.818784 N          1 UNL1 0.000
     8 C      -3.749087    -0.749476     1.846947 C          1 UNL1 0.000
     9 C      -5.152435    -0.711799     1.895891 C          1 UNL1 0.000
    10 C      -5.908593    -1.887971     1.925075 C          1 UNL1 0.000
    11 C      -5.272907    -3.126530     1.901629 C          1 UNL1 0.000
    12 C      -3.883005    -3.187534     1.849836 C          1 UNL1 0.000
    13 C      -3.127578    -2.010206     1.823579 C          1 UNL1 0.000
    14 O      -5.872658     0.460541     1.916762 O          1 UNL1 0.000
    15 C      -1.587704     0.491770     1.785468 C          1 UNL1 0.000
    16 C      -0.852690     0.496506     2.977934 C          1 UNL1 0.000
    17 C       0.538490     0.495979     2.929071 C          1 UNL1 0.000
    18 C       1.208890     0.525227     1.707629 C          1 UNL1 0.000
    19 C       0.492649     0.515685     0.502708 C          1 UNL1 0.000
    20 C      -0.909562     0.498521     0.555012 C          1 UNL1 0.000
    21 O       1.287413     0.537980     4.073432 O          1 UNL1 0.000
    22 C       1.275161    -0.731280     4.726465 C          1 UNL1 0.000
    23 H      -5.929845     4.960432     1.808661 H          1 UNL1 0.000
    24 H      -7.028972     2.737515     1.901194 H          1 UNL1 0.000
    25 H      -2.084843     3.074593     1.731939 H          1 UNL1 0.000
    26 H      -3.452940     5.107609     1.724197 H          1 UNL1 0.000
    27 H      -6.993151    -1.833699     1.963709 H          1 UNL1 0.000
    28 H      -5.859993    -4.040861     1.921478 H          1 UNL1 0.000
    29 H      -3.381755    -4.151994     1.827625 H          1 UNL1 0.000
    30 H      -2.045546    -2.097677     1.779687 H          1 UNL1 0.000
    31 H      -1.370039     0.512613     3.932534 H          1 UNL1 0.000
    32 H       2.296149     0.555979     1.697311 H          1 UNL1 0.000
    33 H      -1.487074     0.489807    -0.367829 H          1 UNL1 0.000
    34 H       2.046895    -0.715157     5.501987 H          1 UNL1 0.000
    35 H       1.513826    -1.544560     4.031067 H          1 UNL1 0.000
    36 H       0.310048    -0.912298     5.210344 H          1 UNL1 0.000
    37 C       1.198098     0.522840    -0.780443 C          1 UNL1 0.000
    38 C       1.830088    -0.634990    -1.255636 C          1 UNL1 0.000
    39 C       2.517807    -0.627631    -2.472362 C          1 UNL1 0.000
    40 C       2.581992     0.538169    -3.242129 C          1 UNL1 0.000
    41 C       1.962940     1.699885    -2.767882 C          1 UNL1 0.000
    42 C       1.272340     1.689810    -1.552665 C          1 UNL1 0.000
    43 C       3.351305     0.564552    -4.529222 C          1 UNL1 0.000
    44 H       1.788921    -1.554814    -0.675981 H          1 UNL1 0.000
    45 H       3.002574    -1.539821    -2.812465 H          1 UNL1 0.000
    46 H       2.016494     2.623250    -3.340195 H          1 UNL1 0.000
    47 H       0.801112     2.605857    -1.202370 H          1 UNL1 0.000
    48 H       4.341392     1.000701    -4.364181 H          1 UNL1 0.000
    49 H       2.820789     1.155706    -5.282912 H          1 UNL1 0.000
    50 H       3.477765    -0.444329    -4.935767 H          1 UNL1 0.000
@<TRIPOS>BOND
     1      1      2   2
     2      2      3   1
     3      3      4   2
     4      4      5   1
     5      5      6   2
     6      6      1   1
     7      4      7   1
     8      7      8   1
     9      8      9   2
    10      9     10   1
    11     10     11   2
    12     11     12   1
    13     12     13   2
    14     13      8   1
    15      3     14   1
    16      9     14   1
    17     15     16   2
    18     16     17   1
    19     17     18   2
    20     18     19   1
    21     19     20   2
    22     20     15   1
    23     21     22   1
    24     17     21   1
    25      7     15   1
    26      1     23   1
    27      2     24   1
    28      5     25   1
    29      6     26   1
    30     10     27   1
    31     11     28   1
    32     12     29   1
    33     13     30   1
    34     16     31   1
    35     18     32   1
    36     20     33   1
    37     22     34   1
    38     22     35   1
    39     22     36   1
    40     37     38   2
    41     38     39   1
    42     39     40   2
    43     40     41   1
    44     41     42   2
    45     42     37   1
    46     40     43   1
    47     38     44   1
    48     39     45   1
    49     41     46   1
    50     42     47   1
    51     43     48   1
    52     43     49   1
    53     43     50   1
    54     19     37   1
