# Produced with molli package
@<TRIPOS>MOLECULE
I_4_P
51 55 0 0 0
SMALL
USER_CHARGES

@<TRIPOS>ATOM
     1 C      -5.310476     4.097847     1.780284 C          1 UNL1 0.000
     2 C      -5.930068     2.851276     1.815435 C          1 UNL1 0.000
     3 C      -5.157730     1.685116     1.805505 C          1 UNL1 0.000
     4 C      -3.755141     1.741037     1.761417 C          1 UNL1 0.000
     5 C      -3.149993     3.009502     1.725951 C          1 UNL1 0.000
     6 C      -3.921530     4.176786     1.735338 C          1 UNL1 0.000
     7 N      -3.004894     0.519798     1.752581 N          1 UNL1 0.000
     8 C      -3.740607    -0.709951     1.786126 C          1 UNL1 0.000
     9 C      -5.143629    -0.669907     1.831100 C          1 UNL1 0.000
    10 C      -5.901791    -1.844802     1.868760 C          1 UNL1 0.000
    11 C      -5.267396    -3.084398     1.860479 C          1 UNL1 0.000
    12 C      -3.877732    -3.147784     1.814193 C          1 UNL1 0.000
    13 C      -3.120397    -1.971748     1.777596 C          1 UNL1 0.000
    14 O      -5.862431     0.503572     1.842831 O          1 UNL1 0.000
    15 C      -1.577084     0.527947     1.736497 C          1 UNL1 0.000
    16 C      -0.858207     0.566901     2.937868 C          1 UNL1 0.000
    17 C       0.532490     0.558172     2.907605 C          1 UNL1 0.000
    18 C       1.221325     0.547099     1.696184 C          1 UNL1 0.000
    19 C       0.520728     0.504467     0.482764 C          1 UNL1 0.000
    20 C      -0.882204     0.494830     0.515409 C          1 UNL1 0.000
    21 O       1.247701     0.628941     4.071796 O          1 UNL1 0.000
    22 C       1.406594    -0.677145     4.626805 C          1 UNL1 0.000
    23 H      -5.909635     5.004594     1.788012 H          1 UNL1 0.000
    24 H      -7.013705     2.783118     1.850642 H          1 UNL1 0.000
    25 H      -2.068897     3.111360     1.690429 H          1 UNL1 0.000
    26 H      -3.432323     5.147420     1.707784 H          1 UNL1 0.000
    27 H      -6.986151    -1.788754     1.904228 H          1 UNL1 0.000
    28 H      -5.855919    -3.997706     1.889035 H          1 UNL1 0.000
    29 H      -3.377569    -4.113126     1.805462 H          1 UNL1 0.000
    30 H      -2.038542    -2.061232     1.740451 H          1 UNL1 0.000
    31 H      -1.385704     0.607425     3.886343 H          1 UNL1 0.000
    32 H       2.308562     0.570844     1.700240 H          1 UNL1 0.000
    33 H      -1.447183     0.461030    -0.414626 H          1 UNL1 0.000
    34 H       2.092776    -0.599175     5.475403 H          1 UNL1 0.000
    35 H       1.845100    -1.371908     3.901105 H          1 UNL1 0.000
    36 H       0.450630    -1.063903     4.995500 H          1 UNL1 0.000
    37 C       1.245904     0.462275    -0.788231 C          1 UNL1 0.000
    38 C       1.441588     1.628455    -1.544263 C          1 UNL1 0.000
    39 C       2.159495     1.589110    -2.742763 C          1 UNL1 0.000
    40 C       2.694089     0.381666    -3.186670 C          1 UNL1 0.000
    41 C       2.479359    -0.791462    -2.469882 C          1 UNL1 0.000
    42 C       1.767909    -0.748832    -1.269314 C          1 UNL1 0.000
    43 O       3.383900     0.293246    -4.364623 O          1 UNL1 0.000
    44 C       4.640444     0.964042    -4.269570 C          1 UNL1 0.000
    45 H       1.034659     2.576666    -1.198832 H          1 UNL1 0.000
    46 H       2.286698     2.496505    -3.325069 H          1 UNL1 0.000
    47 H       2.872141    -1.734297    -2.838897 H          1 UNL1 0.000
    48 H       1.617821    -1.668932    -0.708680 H          1 UNL1 0.000
    49 H       5.219291     0.717207    -5.164692 H          1 UNL1 0.000
    50 H       5.208990     0.624210    -3.396083 H          1 UNL1 0.000
    51 H       4.508761     2.050485    -4.242238 H          1 UNL1 0.000
@<TRIPOS>BOND
     1      1      2   2
     2      2      3   1
     3      3      4   2
     4      4      5   1
     5      5      6   2
     6      6      1   1
     7      4      7   1
     8      7      8   1
     9      8      9   2
    10      9     10   1
    11     10     11   2
    12     11     12   1
    13     12     13   2
    14     13      8   1
    15      3     14   1
    16      9     14   1
    17     15     16   2
    18     16     17   1
    19     17     18   2
    20     18     19   1
    21     19     20   2
    22     20     15   1
    23     21     22   1
    24     17     21   1
    25      7     15   1
    26      1     23   1
    27      2     24   1
    28      5     25   1
    29      6     26   1
    30     10     27   1
    31     11     28   1
    32     12     29   1
    33     13     30   1
    34     16     31   1
    35     18     32   1
    36     20     33   1
    37     22     34   1
    38     22     35   1
    39     22     36   1
    40     37     38   2
    41     38     39   1
    42     39     40   2
    43     40     41   1
    44     41     42   2
    45     42     37   1
    46     43     44   1
    47     40     43   1
    48     38     45   1
    49     39     46   1
    50     41     47   1
    51     42     48   1
    52     44     49   1
    53     44     50   1
    54     44     51   1
    55     19     37   1
