# Produced with molli package
@<TRIPOS>MOLECULE
I_4_K
49 53 0 0 0
SMALL
USER_CHARGES

@<TRIPOS>ATOM
     1 C      -5.324211     4.064297     1.941531 C          1 UNL1 0.000
     2 C      -5.950623     2.821902     1.892104 C          1 UNL1 0.000
     3 C      -5.184598     1.652028     1.865978 C          1 UNL1 0.000
     4 C      -3.780685     1.699689     1.886823 C          1 UNL1 0.000
     5 C      -3.168639     2.964177     1.936377 C          1 UNL1 0.000
     6 C      -3.934012     4.135243     1.964143 C          1 UNL1 0.000
     7 N      -3.037329     0.474414     1.856318 N          1 UNL1 0.000
     8 C      -3.780824    -0.750491     1.813067 C          1 UNL1 0.000
     9 C      -5.184536    -0.701965     1.796340 C          1 UNL1 0.000
    10 C      -5.950092    -1.871725     1.755598 C          1 UNL1 0.000
    11 C      -5.323399    -3.114828     1.732811 C          1 UNL1 0.000
    12 C      -3.933245    -3.186770     1.750111 C          1 UNL1 0.000
    13 C      -3.168465    -2.015784     1.789576 C          1 UNL1 0.000
    14 O      -5.896321     0.475339     1.817667 O          1 UNL1 0.000
    15 C      -1.609039     0.474082     1.837143 C          1 UNL1 0.000
    16 C      -0.884070     0.467885     3.035593 C          1 UNL1 0.000
    17 C       0.507017     0.452589     2.996605 C          1 UNL1 0.000
    18 C       1.187360     0.476262     1.780510 C          1 UNL1 0.000
    19 C       0.481914     0.475573     0.569276 C          1 UNL1 0.000
    20 C      -0.920733     0.475908     0.611311 C          1 UNL1 0.000
    21 O       1.250678     0.479340     4.144396 O          1 UNL1 0.000
    22 C       1.217780    -0.791900     4.793234 C          1 UNL1 0.000
    23 H      -5.918619     4.973934     1.963210 H          1 UNL1 0.000
    24 H      -7.035317     2.759926     1.874231 H          1 UNL1 0.000
    25 H      -2.086556     3.060450     1.957098 H          1 UNL1 0.000
    26 H      -3.439911     5.102927     2.004717 H          1 UNL1 0.000
    27 H      -7.034838    -1.809028     1.742191 H          1 UNL1 0.000
    28 H      -5.917847    -4.024183     1.701905 H          1 UNL1 0.000
    29 H      -3.439308    -4.155152     1.733011 H          1 UNL1 0.000
    30 H      -2.086579    -2.112369     1.802843 H          1 UNL1 0.000
    31 H      -1.408601     0.484683     3.986335 H          1 UNL1 0.000
    32 H       2.275050     0.493983     1.782722 H          1 UNL1 0.000
    33 H      -1.493896     0.473340    -0.314359 H          1 UNL1 0.000
    34 H       2.033252    -0.815484     5.522425 H          1 UNL1 0.000
    35 H       1.376082    -1.614860     4.086035 H          1 UNL1 0.000
    36 H       0.273903    -0.926242     5.330768 H          1 UNL1 0.000
    37 C       1.201660     0.467346    -0.707067 C          1 UNL1 0.000
    38 C       1.226470     1.609208    -1.525676 C          1 UNL1 0.000
    39 C       1.933429     1.610536    -2.731374 C          1 UNL1 0.000
    40 C       2.622656     0.457331    -3.120251 C          1 UNL1 0.000
    41 C       2.608919    -0.693215    -2.325691 C          1 UNL1 0.000
    42 C       1.896945    -0.681688    -1.123911 C          1 UNL1 0.000
    43 N       3.374586     0.455105    -4.373248 N          1 UNL1 0.000
    44 O       4.361704    -0.289302    -4.446522 O          1 UNL1 0.000
    45 O       2.975739     1.199230    -5.280842 O          1 UNL1 0.000
    46 H       0.702260     2.512266    -1.215697 H          1 UNL1 0.000
    47 H       1.946831     2.509447    -3.344039 H          1 UNL1 0.000
    48 H       3.138924    -1.594187    -2.626729 H          1 UNL1 0.000
    49 H       1.883141    -1.579143    -0.506880 H          1 UNL1 0.000
@<TRIPOS>BOND
     1      1      2   2
     2      2      3   1
     3      3      4   2
     4      4      5   1
     5      5      6   2
     6      6      1   1
     7      4      7   1
     8      7      8   1
     9      8      9   2
    10      9     10   1
    11     10     11   2
    12     11     12   1
    13     12     13   2
    14     13      8   1
    15      3     14   1
    16      9     14   1
    17     15     16   2
    18     16     17   1
    19     17     18   2
    20     18     19   1
    21     19     20   2
    22     20     15   1
    23     21     22   1
    24     17     21   1
    25      7     15   1
    26      1     23   1
    27      2     24   1
    28      5     25   1
    29      6     26   1
    30     10     27   1
    31     11     28   1
    32     12     29   1
    33     13     30   1
    34     16     31   1
    35     18     32   1
    36     20     33   1
    37     22     34   1
    38     22     35   1
    39     22     36   1
    40     37     38   2
    41     38     39   1
    42     39     40   2
    43     40     41   1
    44     41     42   2
    45     42     37   1
    46     43     44   2
    47     43     45   1
    48     40     43   1
    49     38     46   1
    50     39     47   1
    51     41     48   1
    52     42     49   1
    53     19     37   1
