# Produced with molli package
@<TRIPOS>MOLECULE
I_4_M
48 52 0 0 0
SMALL
USER_CHARGES

@<TRIPOS>ATOM
     1 C      -5.399295     4.105299     1.924250 C          1 UNL1 0.000
     2 C      -6.013298     2.855893     1.938427 C          1 UNL1 0.000
     3 C      -5.237160     1.693635     1.883719 C          1 UNL1 0.000
     4 C      -3.835221     1.755692     1.816535 C          1 UNL1 0.000
     5 C      -3.235755     3.027070     1.804920 C          1 UNL1 0.000
     6 C      -4.011317     4.190689     1.857370 C          1 UNL1 0.000
     7 N      -3.081485     0.537538     1.758151 N          1 UNL1 0.000
     8 C      -3.814467    -0.694363     1.746942 C          1 UNL1 0.000
     9 C      -5.216727    -0.660317     1.823645 C          1 UNL1 0.000
    10 C      -5.971962    -1.837458     1.824772 C          1 UNL1 0.000
    11 C      -5.336588    -3.073443     1.741299 C          1 UNL1 0.000
    12 C      -3.948178    -3.130765     1.656692 C          1 UNL1 0.000
    13 C      -3.193418    -1.952551     1.661088 C          1 UNL1 0.000
    14 O      -5.937156     0.509179     1.903108 O          1 UNL1 0.000
    15 C      -1.652875     0.549566     1.743203 C          1 UNL1 0.000
    16 C      -0.933382     0.543721     2.945935 C          1 UNL1 0.000
    17 C       0.458222     0.549804     2.915606 C          1 UNL1 0.000
    18 C       1.144145     0.591584     1.703347 C          1 UNL1 0.000
    19 C       0.444441     0.590225     0.489018 C          1 UNL1 0.000
    20 C      -0.958378     0.569926     0.521596 C          1 UNL1 0.000
    21 O       1.197292     0.588607     4.066001 O          1 UNL1 0.000
    22 C       1.163060    -0.672620     4.733319 C          1 UNL1 0.000
    23 H      -6.001538     5.009085     1.965551 H          1 UNL1 0.000
    24 H      -7.096142     2.782462     1.991282 H          1 UNL1 0.000
    25 H      -2.155800     3.134624     1.753104 H          1 UNL1 0.000
    26 H      -3.526848     5.163999     1.846090 H          1 UNL1 0.000
    27 H      -7.055430    -1.785880     1.889831 H          1 UNL1 0.000
    28 H      -5.923009    -3.988505     1.740482 H          1 UNL1 0.000
    29 H      -3.447755    -4.093398     1.586567 H          1 UNL1 0.000
    30 H      -2.112673    -2.037589     1.592208 H          1 UNL1 0.000
    31 H      -1.463871     0.548700     3.893568 H          1 UNL1 0.000
    32 H       2.231424     0.624826     1.710153 H          1 UNL1 0.000
    33 H      -1.524885     0.570741    -0.408036 H          1 UNL1 0.000
    34 H       1.986689    -0.690464     5.453637 H          1 UNL1 0.000
    35 H       1.308401    -1.507213     4.037184 H          1 UNL1 0.000
    36 H       0.224772    -0.792258     5.283782 H          1 UNL1 0.000
    37 C       1.170574     0.609583    -0.782065 C          1 UNL1 0.000
    38 C       1.292557     1.795749    -1.520504 C          1 UNL1 0.000
    39 C       2.007041     1.818691    -2.722425 C          1 UNL1 0.000
    40 C       2.606488     0.651404    -3.204299 C          1 UNL1 0.000
    41 C       2.487879    -0.537551    -2.479244 C          1 UNL1 0.000
    42 C       1.776143    -0.556035    -1.276027 C          1 UNL1 0.000
    43 C       3.342371     0.673656    -4.434543 C          1 UNL1 0.000
    44 N       3.939431     0.690157    -5.429362 N          1 UNL1 0.000
    45 H       0.838061     2.714646    -1.153508 H          1 UNL1 0.000
    46 H       2.093593     2.753390    -3.273337 H          1 UNL1 0.000
    47 H       2.948096    -1.455100    -2.841145 H          1 UNL1 0.000
    48 H       1.694209    -1.489221    -0.721081 H          1 UNL1 0.000
@<TRIPOS>BOND
     1      1      2   2
     2      2      3   1
     3      3      4   2
     4      4      5   1
     5      5      6   2
     6      6      1   1
     7      4      7   1
     8      7      8   1
     9      8      9   2
    10      9     10   1
    11     10     11   2
    12     11     12   1
    13     12     13   2
    14     13      8   1
    15      3     14   1
    16      9     14   1
    17     15     16   2
    18     16     17   1
    19     17     18   2
    20     18     19   1
    21     19     20   2
    22     20     15   1
    23     21     22   1
    24     17     21   1
    25      7     15   1
    26      1     23   1
    27      2     24   1
    28      5     25   1
    29      6     26   1
    30     10     27   1
    31     11     28   1
    32     12     29   1
    33     13     30   1
    34     16     31   1
    35     18     32   1
    36     20     33   1
    37     22     34   1
    38     22     35   1
    39     22     36   1
    40     37     38   2
    41     38     39   1
    42     39     40   2
    43     40     41   1
    44     41     42   2
    45     42     37   1
    46     43     44   3
    47     40     43   1
    48     38     45   1
    49     39     46   1
    50     41     47   1
    51     42     48   1
    52     19     37   1
