# Produced with molli package
@<TRIPOS>MOLECULE
I_4_L
51 56 0 0 0
SMALL
USER_CHARGES

@<TRIPOS>ATOM
     1 C      -5.308323     4.131286     1.755425 C          1 UNL1 0.000
     2 C      -5.946956     2.894749     1.798711 C          1 UNL1 0.000
     3 C      -5.193153     1.716495     1.796817 C          1 UNL1 0.000
     4 C      -3.789545     1.749921     1.754685 C          1 UNL1 0.000
     5 C      -3.165189     3.008781     1.711174 C          1 UNL1 0.000
     6 C      -3.918118     4.188073     1.710873 C          1 UNL1 0.000
     7 N      -3.058282     0.516628     1.755647 N          1 UNL1 0.000
     8 C      -3.813210    -0.700884     1.784023 C          1 UNL1 0.000
     9 C      -5.216094    -0.638329     1.824692 C          1 UNL1 0.000
    10 C      -5.993287    -1.800667     1.854218 C          1 UNL1 0.000
    11 C      -5.379341    -3.050206     1.841278 C          1 UNL1 0.000
    12 C      -3.990340    -3.135844     1.799457 C          1 UNL1 0.000
    13 C      -3.213788    -1.972203     1.771679 C          1 UNL1 0.000
    14 O      -5.916048     0.546380     1.839245 O          1 UNL1 0.000
    15 C      -1.629817     0.505583     1.742254 C          1 UNL1 0.000
    16 C      -0.912108     0.531375     2.945164 C          1 UNL1 0.000
    17 C       0.478794     0.540094     2.914867 C          1 UNL1 0.000
    18 C       1.166681     0.560627     1.703332 C          1 UNL1 0.000
    19 C       0.468994     0.521765     0.487993 C          1 UNL1 0.000
    20 C      -0.933879     0.489168     0.521058 C          1 UNL1 0.000
    21 O       1.205870     0.596387     4.072216 O          1 UNL1 0.000
    22 C       1.279423    -0.696997     4.672565 C          1 UNL1 0.000
    23 H      -5.892889     5.047429     1.755783 H          1 UNL1 0.000
    24 H      -7.031727     2.843945     1.833225 H          1 UNL1 0.000
    25 H      -2.082423     3.094161     1.674975 H          1 UNL1 0.000
    26 H      -3.413554     5.150517     1.675441 H          1 UNL1 0.000
    27 H      -7.076887    -1.726819     1.886445 H          1 UNL1 0.000
    28 H      -5.982769    -3.953815     1.862983 H          1 UNL1 0.000
    29 H      -3.506255    -4.109203     1.787578 H          1 UNL1 0.000
    30 H      -2.133148    -2.078342     1.737770 H          1 UNL1 0.000
    31 H      -1.441119     0.558937     3.893084 H          1 UNL1 0.000
    32 H       2.253921     0.594743     1.709284 H          1 UNL1 0.000
    33 H      -1.498618     0.473221    -0.409536 H          1 UNL1 0.000
    34 H       2.100654    -0.683656     5.395532 H          1 UNL1 0.000
    35 H       1.493013    -1.481593     3.936751 H          1 UNL1 0.000
    36 H       0.352730    -0.921712     5.210088 H          1 UNL1 0.000
    37 C       1.198698     0.520372    -0.783585 C          1 UNL1 0.000
    38 C       1.256846    -0.637562    -1.572001 C          1 UNL1 0.000
    39 C       1.975884    -0.678324    -2.773058 C          1 UNL1 0.000
    40 C       2.637401     0.488245    -3.168867 C          1 UNL1 0.000
    41 C       2.599924     1.664288    -2.421729 C          1 UNL1 0.000
    42 C       1.872961     1.678100    -1.215196 C          1 UNL1 0.000
    43 N       3.412238     0.739084    -4.279167 N          1 UNL1 0.000
    44 C       3.859529     2.033907    -4.261338 C          1 UNL1 0.000
    45 C       3.370772     2.632166    -3.122717 C          1 UNL1 0.000
    46 H       0.743844    -1.539682    -1.241998 H          1 UNL1 0.000
    47 H       2.017557    -1.586355    -3.365180 H          1 UNL1 0.000
    48 H       1.836908     2.587314    -0.620663 H          1 UNL1 0.000
    49 H       3.617424     0.061033    -4.999333 H          1 UNL1 0.000
    50 H       4.484733     2.416047    -5.056978 H          1 UNL1 0.000
    51 H       3.548114     3.656207    -2.821337 H          1 UNL1 0.000
@<TRIPOS>BOND
     1      1      2   2
     2      2      3   1
     3      3      4   2
     4      4      5   1
     5      5      6   2
     6      6      1   1
     7      4      7   1
     8      7      8   1
     9      8      9   2
    10      9     10   1
    11     10     11   2
    12     11     12   1
    13     12     13   2
    14     13      8   1
    15      3     14   1
    16      9     14   1
    17     15     16   2
    18     16     17   1
    19     17     18   2
    20     18     19   1
    21     19     20   2
    22     20     15   1
    23     21     22   1
    24     17     21   1
    25      7     15   1
    26      1     23   1
    27      2     24   1
    28      5     25   1
    29      6     26   1
    30     10     27   1
    31     11     28   1
    32     12     29   1
    33     13     30   1
    34     16     31   1
    35     18     32   1
    36     20     33   1
    37     22     34   1
    38     22     35   1
    39     22     36   1
    40     37     38   2
    41     38     39   1
    42     39     40   2
    43     40     41   1
    44     41     42   2
    45     42     37   1
    46     40     43   1
    47     43     44   1
    48     44     45   2
    49     45     41   1
    50     38     46   1
    51     39     47   1
    52     42     48   1
    53     43     49   1
    54     44     50   1
    55     45     51   1
    56     19     37   1
