# Produced with molli package
@<TRIPOS>MOLECULE
I_4_O
46 50 0 0 0
SMALL
USER_CHARGES

@<TRIPOS>ATOM
     1 C      -5.354089     4.012684     1.861815 C          1 UNL1 0.000
     2 C      -5.976925     2.767483     1.837716 C          1 UNL1 0.000
     3 C      -5.208138     1.598904     1.846601 C          1 UNL1 0.000
     4 C      -3.805082     1.650919     1.878440 C          1 UNL1 0.000
     5 C      -3.196848     2.918411     1.903957 C          1 UNL1 0.000
     6 C      -3.964591     4.087985     1.895809 C          1 UNL1 0.000
     7 N      -3.057423     0.427337     1.879367 N          1 UNL1 0.000
     8 C      -3.795676    -0.799823     1.838004 C          1 UNL1 0.000
     9 C      -5.199708    -0.755990     1.812085 C          1 UNL1 0.000
    10 C      -5.961391    -1.928319     1.773847 C          1 UNL1 0.000
    11 C      -5.330260    -3.169261     1.760796 C          1 UNL1 0.000
    12 C      -3.939806    -3.236156     1.785366 C          1 UNL1 0.000
    13 C      -3.178793    -2.062561     1.823539 C          1 UNL1 0.000
    14 O      -5.915942     0.419203     1.819989 O          1 UNL1 0.000
    15 C      -1.629219     0.437233     1.870310 C          1 UNL1 0.000
    16 C      -0.913108     0.475647     3.072812 C          1 UNL1 0.000
    17 C       0.477671     0.516571     3.042869 C          1 UNL1 0.000
    18 C       1.165444     0.568253     1.831408 C          1 UNL1 0.000
    19 C       0.470441     0.519439     0.613921 C          1 UNL1 0.000
    20 C      -0.931440     0.438981     0.650689 C          1 UNL1 0.000
    21 O       1.208030     0.573733     4.198582 O          1 UNL1 0.000
    22 C       1.246067    -0.710187     4.823462 C          1 UNL1 0.000
    23 H      -5.950587     4.921045     1.853785 H          1 UNL1 0.000
    24 H      -7.061106     2.702218     1.810368 H          1 UNL1 0.000
    25 H      -2.115204     3.017957     1.929832 H          1 UNL1 0.000
    26 H      -3.472308     5.057145     1.915311 H          1 UNL1 0.000
    27 H      -7.046053    -1.868995     1.752514 H          1 UNL1 0.000
    28 H      -5.921032    -4.080832     1.729257 H          1 UNL1 0.000
    29 H      -3.441432    -4.202300     1.772067 H          1 UNL1 0.000
    30 H      -2.096095    -2.154397     1.837616 H          1 UNL1 0.000
    31 H      -1.444070     0.484897     4.020008 H          1 UNL1 0.000
    32 H       2.251673     0.620769     1.842070 H          1 UNL1 0.000
    33 H      -1.491724     0.396811    -0.282295 H          1 UNL1 0.000
    34 H       2.029691    -0.687188     5.586788 H          1 UNL1 0.000
    35 H       1.496618    -1.503087     4.108654 H          1 UNL1 0.000
    36 H       0.294117    -0.928601     5.317913 H          1 UNL1 0.000
    37 C       1.185054     0.553531    -0.665148 C          1 UNL1 0.000
    38 N       0.990991    -0.514877    -1.475986 N          1 UNL1 0.000
    39 C       1.651336    -0.527891    -2.654927 C          1 UNL1 0.000
    40 C       2.493238     0.486203    -3.078864 C          1 UNL1 0.000
    41 C       2.672412     1.581523    -2.244580 C          1 UNL1 0.000
    42 C       2.014299     1.617440    -1.017778 C          1 UNL1 0.000
    43 H       1.480039    -1.406726    -3.269468 H          1 UNL1 0.000
    44 H       2.995388     0.423644    -4.037850 H          1 UNL1 0.000
    45 H       3.317821     2.402321    -2.543748 H          1 UNL1 0.000
    46 H       2.138414     2.467666    -0.355151 H          1 UNL1 0.000
@<TRIPOS>BOND
     1      1      2   2
     2      2      3   1
     3      3      4   2
     4      4      5   1
     5      5      6   2
     6      6      1   1
     7      4      7   1
     8      7      8   1
     9      8      9   2
    10      9     10   1
    11     10     11   2
    12     11     12   1
    13     12     13   2
    14     13      8   1
    15      3     14   1
    16      9     14   1
    17     15     16   2
    18     16     17   1
    19     17     18   2
    20     18     19   1
    21     19     20   2
    22     20     15   1
    23     21     22   1
    24     17     21   1
    25      7     15   1
    26      1     23   1
    27      2     24   1
    28      5     25   1
    29      6     26   1
    30     10     27   1
    31     11     28   1
    32     12     29   1
    33     13     30   1
    34     16     31   1
    35     18     32   1
    36     20     33   1
    37     22     34   1
    38     22     35   1
    39     22     36   1
    40     37     38   2
    41     38     39   1
    42     39     40   2
    43     40     41   1
    44     41     42   2
    45     42     37   1
    46     39     43   1
    47     40     44   1
    48     41     45   1
    49     42     46   1
    50     19     37   1
