# Produced with molli package
@<TRIPOS>MOLECULE
I_4_S
52 56 0 0 0
SMALL
USER_CHARGES

@<TRIPOS>ATOM
     1 C      -5.181973     4.111674     1.692416 C          1 UNL1 0.000
     2 C      -5.850664     2.890755     1.727655 C          1 UNL1 0.000
     3 C      -5.125507     1.695138     1.760116 C          1 UNL1 0.000
     4 C      -3.721198     1.695529     1.758229 C          1 UNL1 0.000
     5 C      -3.066180     2.939336     1.724412 C          1 UNL1 0.000
     6 C      -3.790247     4.135843     1.691056 C          1 UNL1 0.000
     7 N      -3.018987     0.445561     1.790763 N          1 UNL1 0.000
     8 C      -3.802415    -0.753643     1.818802 C          1 UNL1 0.000
     9 C      -5.204272    -0.657933     1.818573 C          1 UNL1 0.000
    10 C      -6.009506    -1.801084     1.842886 C          1 UNL1 0.000
    11 C      -5.425263    -3.064490     1.867624 C          1 UNL1 0.000
    12 C      -4.037961    -3.182986     1.868601 C          1 UNL1 0.000
    13 C      -3.233165    -2.038396     1.844499 C          1 UNL1 0.000
    14 O      -5.876396     0.542693     1.793038 O          1 UNL1 0.000
    15 C      -1.591269     0.404117     1.775069 C          1 UNL1 0.000
    16 C      -0.870317     0.417579     2.975753 C          1 UNL1 0.000
    17 C       0.520665     0.421378     2.941774 C          1 UNL1 0.000
    18 C       1.204947     0.449169     1.728017 C          1 UNL1 0.000
    19 C       0.503637     0.423819     0.514045 C          1 UNL1 0.000
    20 C      -0.898960     0.392560     0.551613 C          1 UNL1 0.000
    21 O       1.251007     0.482646     4.097028 O          1 UNL1 0.000
    22 C       1.308595    -0.802800     4.715592 C          1 UNL1 0.000
    23 H      -5.744643     5.041091     1.666804 H          1 UNL1 0.000
    24 H      -6.936917     2.865739     1.729703 H          1 UNL1 0.000
    25 H      -1.981263     2.999532     1.724405 H          1 UNL1 0.000
    26 H      -3.262408     5.085968     1.664827 H          1 UNL1 0.000
    27 H      -7.091573    -1.701623     1.841091 H          1 UNL1 0.000
    28 H      -6.050419    -3.953382     1.885092 H          1 UNL1 0.000
    29 H      -3.577489    -4.167726     1.886923 H          1 UNL1 0.000
    30 H      -2.154917    -2.170527     1.844590 H          1 UNL1 0.000
    31 H      -1.397062     0.447430     3.924986 H          1 UNL1 0.000
    32 H       2.292114     0.483455     1.732896 H          1 UNL1 0.000
    33 H      -1.468475     0.389225    -0.376336 H          1 UNL1 0.000
    34 H       2.048692    -0.753430     5.519995 H          1 UNL1 0.000
    35 H       1.630849    -1.575989     4.008369 H          1 UNL1 0.000
    36 H       0.342229    -1.067064     5.157077 H          1 UNL1 0.000
    37 C       1.226554     0.450346    -0.760057 C          1 UNL1 0.000
    38 C       1.277812    -0.679211    -1.584822 C          1 UNL1 0.000
    39 C       1.999552    -0.654664    -2.783315 C          1 UNL1 0.000
    40 C       2.681902     0.502004    -3.190428 C          1 UNL1 0.000
    41 C       2.620903     1.637100    -2.377014 C          1 UNL1 0.000
    42 C       1.902906     1.606903    -1.173908 C          1 UNL1 0.000
    43 C       3.443211     0.442729    -4.478177 C          1 UNL1 0.000
    44 C       4.210273     1.635169    -4.991823 C          1 UNL1 0.000
    45 O       3.440404    -0.603709    -5.128340 O          1 UNL1 0.000
    46 H       0.767792    -1.595436    -1.293034 H          1 UNL1 0.000
    47 H       2.029244    -1.553991    -3.397182 H          1 UNL1 0.000
    48 H       3.116992     2.565690    -2.634257 H          1 UNL1 0.000
    49 H       1.872112     2.502229    -0.554164 H          1 UNL1 0.000
    50 H       5.255469     1.342900    -5.130859 H          1 UNL1 0.000
    51 H       4.196946     2.498662    -4.331137 H          1 UNL1 0.000
    52 H       3.784450     1.937448    -5.952913 H          1 UNL1 0.000
@<TRIPOS>BOND
     1      1      2   2
     2      2      3   1
     3      3      4   2
     4      4      5   1
     5      5      6   2
     6      6      1   1
     7      4      7   1
     8      7      8   1
     9      8      9   2
    10      9     10   1
    11     10     11   2
    12     11     12   1
    13     12     13   2
    14     13      8   1
    15      3     14   1
    16      9     14   1
    17     15     16   2
    18     16     17   1
    19     17     18   2
    20     18     19   1
    21     19     20   2
    22     20     15   1
    23     21     22   1
    24     17     21   1
    25      7     15   1
    26      1     23   1
    27      2     24   1
    28      5     25   1
    29      6     26   1
    30     10     27   1
    31     11     28   1
    32     12     29   1
    33     13     30   1
    34     16     31   1
    35     18     32   1
    36     20     33   1
    37     22     34   1
    38     22     35   1
    39     22     36   1
    40     37     38   2
    41     38     39   1
    42     39     40   2
    43     40     41   1
    44     41     42   2
    45     42     37   1
    46     40     43   1
    47     43     44   1
    48     43     45   2
    49     38     46   1
    50     39     47   1
    51     41     48   1
    52     42     49   1
    53     44     50   1
    54     44     51   1
    55     44     52   1
    56     19     37   1
