# Produced with molli package
@<TRIPOS>MOLECULE
I_5_K
51 56 0 0 0
SMALL
USER_CHARGES

@<TRIPOS>ATOM
     1 C      -7.564448     4.058484     3.173927 C          1 UNL1 0.000
     2 C      -8.196761     2.817979     3.157000 C          1 UNL1 0.000
     3 C      -7.436430     1.644621     3.124616 C          1 UNL1 0.000
     4 C      -6.032596     1.687422     3.106273 C          1 UNL1 0.000
     5 C      -5.414454     2.949960     3.122542 C          1 UNL1 0.000
     6 C      -6.173962     4.124354     3.156863 C          1 UNL1 0.000
     7 N      -5.294658     0.459317     3.077038 N          1 UNL1 0.000
     8 C      -6.042002    -0.763684     3.083855 C          1 UNL1 0.000
     9 C      -7.445436    -0.710637     3.104119 C          1 UNL1 0.000
    10 C      -8.214700    -1.878635     3.115063 C          1 UNL1 0.000
    11 C      -7.591955    -3.124069     3.106703 C          1 UNL1 0.000
    12 C      -6.202087    -3.200182     3.084708 C          1 UNL1 0.000
    13 C      -5.433664    -2.031110     3.071960 C          1 UNL1 0.000
    14 O      -8.152905     0.469699     3.115345 O          1 UNL1 0.000
    15 C      -3.867375     0.453618     3.072215 C          1 UNL1 0.000
    16 C      -3.158035     0.408874     4.277371 C          1 UNL1 0.000
    17 C      -1.762493     0.395946     4.272696 C          1 UNL1 0.000
    18 C      -1.051114     0.426929     3.063239 C          1 UNL1 0.000
    19 C      -1.758219     0.477404     1.840696 C          1 UNL1 0.000
    20 C      -3.162477     0.489763     1.860153 C          1 UNL1 0.000
    21 C       0.350198     0.406393     3.043077 C          1 UNL1 0.000
    22 C       1.047049     0.432267     1.832015 C          1 UNL1 0.000
    23 C       0.363035     0.485944     0.610805 C          1 UNL1 0.000
    24 C      -1.040972     0.510416     0.631549 C          1 UNL1 0.000
    25 H      -8.154540     4.970702     3.201419 H          1 UNL1 0.000
    26 H      -9.281675     2.760168     3.171058 H          1 UNL1 0.000
    27 H      -4.331687     3.041228     3.111446 H          1 UNL1 0.000
    28 H      -5.674918     5.090178     3.171346 H          1 UNL1 0.000
    29 H      -9.299130    -1.812889     3.131409 H          1 UNL1 0.000
    30 H      -8.188961    -4.032145     3.117116 H          1 UNL1 0.000
    31 H      -5.710437    -4.169891     3.077693 H          1 UNL1 0.000
    32 H      -4.351708    -2.130631     3.053729 H          1 UNL1 0.000
    33 H      -3.697409     0.382362     5.221067 H          1 UNL1 0.000
    34 H      -1.234962     0.359091     5.223186 H          1 UNL1 0.000
    35 H      -3.724978     0.524112     0.929373 H          1 UNL1 0.000
    36 H       0.914408     0.369277     3.972487 H          1 UNL1 0.000
    37 H       2.135221     0.419227     1.849303 H          1 UNL1 0.000
    38 H      -1.584169     0.543971    -0.312035 H          1 UNL1 0.000
    39 C       1.098053     0.513070    -0.659061 C          1 UNL1 0.000
    40 C       1.074161     1.655891    -1.477781 C          1 UNL1 0.000
    41 C       1.775854     1.688658    -2.686233 C          1 UNL1 0.000
    42 C       2.511328     0.565879    -3.078967 C          1 UNL1 0.000
    43 C       2.551478    -0.583157    -2.283278 C          1 UNL1 0.000
    44 C       1.843514    -0.603152    -1.078504 C          1 UNL1 0.000
    45 N       3.250145     0.594458    -4.339688 N          1 UNL1 0.000
    46 O       4.264776    -0.112519    -4.423851 O          1 UNL1 0.000
    47 O       2.815040     1.323390    -5.241629 O          1 UNL1 0.000
    48 H       0.511605     2.535408    -1.167009 H          1 UNL1 0.000
    49 H       1.746592     2.586984    -3.299110 H          1 UNL1 0.000
    50 H       3.117108    -1.461255    -2.587519 H          1 UNL1 0.000
    51 H       1.866906    -1.502633    -0.464520 H          1 UNL1 0.000
@<TRIPOS>BOND
     1      1      2   2
     2      2      3   1
     3      3      4   2
     4      4      5   1
     5      5      6   2
     6      6      1   1
     7      4      7   1
     8      7      8   1
     9      8      9   2
    10      9     10   1
    11     10     11   2
    12     11     12   1
    13     12     13   2
    14     13      8   1
    15      3     14   1
    16      9     14   1
    17     15     16   2
    18     16     17   1
    19     17     18   2
    20     18     19   1
    21     19     20   2
    22     20     15   1
    23     18     21   1
    24     21     22   2
    25     22     23   1
    26     23     24   2
    27     24     19   1
    28      7     15   1
    29      1     25   1
    30      2     26   1
    31      5     27   1
    32      6     28   1
    33     10     29   1
    34     11     30   1
    35     12     31   1
    36     13     32   1
    37     16     33   1
    38     17     34   1
    39     20     35   1
    40     21     36   1
    41     22     37   1
    42     24     38   1
    43     39     40   2
    44     40     41   1
    45     41     42   2
    46     42     43   1
    47     43     44   2
    48     44     39   1
    49     45     46   2
    50     45     47   1
    51     42     45   1
    52     40     48   1
    53     41     49   1
    54     43     50   1
    55     44     51   1
    56     23     39   1
