# Produced with molli package
@<TRIPOS>MOLECULE
I_5_S
54 59 0 0 0
SMALL
USER_CHARGES

@<TRIPOS>ATOM
     1 C      -7.597471     4.137448     3.187542 C          1 UNL1 0.000
     2 C      -8.223511     2.893861     3.171385 C          1 UNL1 0.000
     3 C      -7.457519     1.724881     3.119122 C          1 UNL1 0.000
     4 C      -6.054327     1.775015     3.076548 C          1 UNL1 0.000
     5 C      -5.442759     3.040658     3.090280 C          1 UNL1 0.000
     6 C      -6.207794     4.210670     3.147549 C          1 UNL1 0.000
     7 N      -5.310413     0.550795     3.030502 N          1 UNL1 0.000
     8 C      -6.050901    -0.675971     3.074040 C          1 UNL1 0.000
     9 C      -7.454152    -0.630076     3.117874 C          1 UNL1 0.000
    10 C      -8.216805    -1.801460     3.167860 C          1 UNL1 0.000
    11 C      -7.587426    -3.043436     3.178818 C          1 UNL1 0.000
    12 C      -6.197707    -3.112680     3.134701 C          1 UNL1 0.000
    13 C      -5.436053    -1.940243     3.079850 C          1 UNL1 0.000
    14 O      -8.168015     0.546365     3.117575 O          1 UNL1 0.000
    15 C      -3.882757     0.552701     3.009051 C          1 UNL1 0.000
    16 C      -3.161455     0.518202     4.207462 C          1 UNL1 0.000
    17 C      -1.766473     0.511077     4.189239 C          1 UNL1 0.000
    18 C      -1.066968     0.534979     2.973018 C          1 UNL1 0.000
    19 C      -1.784104     0.572938     1.755209 C          1 UNL1 0.000
    20 C      -3.189386     0.583694     1.789315 C          1 UNL1 0.000
    21 C       0.333850     0.517032     2.944114 C          1 UNL1 0.000
    22 C       1.022066     0.525963     1.728731 C          1 UNL1 0.000
    23 C       0.329719     0.559545     0.511816 C          1 UNL1 0.000
    24 C      -1.073951     0.590675     0.539723 C          1 UNL1 0.000
    25 H      -8.191643     5.046295     3.232702 H          1 UNL1 0.000
    26 H      -9.307708     2.830100     3.203417 H          1 UNL1 0.000
    27 H      -4.360806     3.137825     3.061665 H          1 UNL1 0.000
    28 H      -5.713474     5.178927     3.162222 H          1 UNL1 0.000
    29 H      -9.301148    -1.740792     3.201485 H          1 UNL1 0.000
    30 H      -8.179117    -3.954008     3.222033 H          1 UNL1 0.000
    31 H      -5.700813    -4.079671     3.143729 H          1 UNL1 0.000
    32 H      -4.354034    -2.034499     3.045547 H          1 UNL1 0.000
    33 H      -3.691363     0.494662     5.156571 H          1 UNL1 0.000
    34 H      -1.229780     0.481968     5.134822 H          1 UNL1 0.000
    35 H      -3.760737     0.610299     0.863676 H          1 UNL1 0.000
    36 H       0.904675     0.491175     3.869719 H          1 UNL1 0.000
    37 H       2.110280     0.508991     1.736607 H          1 UNL1 0.000
    38 H      -1.621160     0.614743    -0.401778 H          1 UNL1 0.000
    39 C       1.063608     0.545243    -0.757174 C          1 UNL1 0.000
    40 C       1.205543     1.707838    -1.523942 C          1 UNL1 0.000
    41 C       1.929877     1.688614    -2.721369 C          1 UNL1 0.000
    42 C       2.527716     0.505825    -3.180927 C          1 UNL1 0.000
    43 C       2.391819    -0.657709    -2.417865 C          1 UNL1 0.000
    44 C       1.663280    -0.635157    -1.220895 C          1 UNL1 0.000
    45 C       3.290354     0.559836    -4.467166 C          1 UNL1 0.000
    46 C       3.944273    -0.678177    -5.026282 C          1 UNL1 0.000
    47 O       3.406614     1.636046    -5.054720 O          1 UNL1 0.000
    48 H       0.763062     2.643661    -1.187188 H          1 UNL1 0.000
    49 H       2.029759     2.610988    -3.291996 H          1 UNL1 0.000
    50 H       2.839774    -1.599832    -2.714451 H          1 UNL1 0.000
    51 H       1.564370    -1.553520    -0.643604 H          1 UNL1 0.000
    52 H       3.850344    -0.657927    -6.116929 H          1 UNL1 0.000
    53 H       3.473893    -1.602698    -4.693044 H          1 UNL1 0.000
    54 H       5.003048    -0.680416    -4.754559 H          1 UNL1 0.000
@<TRIPOS>BOND
     1      1      2   2
     2      2      3   1
     3      3      4   2
     4      4      5   1
     5      5      6   2
     6      6      1   1
     7      4      7   1
     8      7      8   1
     9      8      9   2
    10      9     10   1
    11     10     11   2
    12     11     12   1
    13     12     13   2
    14     13      8   1
    15      3     14   1
    16      9     14   1
    17     15     16   2
    18     16     17   1
    19     17     18   2
    20     18     19   1
    21     19     20   2
    22     20     15   1
    23     18     21   1
    24     21     22   2
    25     22     23   1
    26     23     24   2
    27     24     19   1
    28      7     15   1
    29      1     25   1
    30      2     26   1
    31      5     27   1
    32      6     28   1
    33     10     29   1
    34     11     30   1
    35     12     31   1
    36     13     32   1
    37     16     33   1
    38     17     34   1
    39     20     35   1
    40     21     36   1
    41     22     37   1
    42     24     38   1
    43     39     40   2
    44     40     41   1
    45     41     42   2
    46     42     43   1
    47     43     44   2
    48     44     39   1
    49     42     45   1
    50     45     46   1
    51     45     47   2
    52     40     48   1
    53     41     49   1
    54     43     50   1
    55     44     51   1
    56     46     52   1
    57     46     53   1
    58     46     54   1
    59     23     39   1
