# Produced with molli package
@<TRIPOS>MOLECULE
I_5_L
53 59 0 0 0
SMALL
USER_CHARGES

@<TRIPOS>ATOM
     1 C      -7.512002     4.123388     3.120715 C          1 UNL1 0.000
     2 C      -8.155202     2.888402     3.133143 C          1 UNL1 0.000
     3 C      -7.405532     1.707887     3.112753 C          1 UNL1 0.000
     4 C      -6.001771     1.737915     3.076944 C          1 UNL1 0.000
     5 C      -5.372593     2.995053     3.064312 C          1 UNL1 0.000
     6 C      -6.121311     4.176579     3.086753 C          1 UNL1 0.000
     7 N      -5.274701     0.503078     3.059999 N          1 UNL1 0.000
     8 C      -6.032252    -0.712943     3.097834 C          1 UNL1 0.000
     9 C      -7.434926    -0.647197     3.134336 C          1 UNL1 0.000
    10 C      -8.214190    -1.807930     3.175087 C          1 UNL1 0.000
    11 C      -7.602421    -3.058775     3.180707 C          1 UNL1 0.000
    12 C      -6.213592    -3.147475     3.143043 C          1 UNL1 0.000
    13 C      -5.435166    -1.985652     3.100562 C          1 UNL1 0.000
    14 O      -8.132154     0.539356     3.133232 O          1 UNL1 0.000
    15 C      -3.847403     0.486112     3.040460 C          1 UNL1 0.000
    16 C      -3.126769     0.454169     4.239370 C          1 UNL1 0.000
    17 C      -1.731498     0.438380     4.221654 C          1 UNL1 0.000
    18 C      -1.031558     0.452975     3.005294 C          1 UNL1 0.000
    19 C      -1.749652     0.487226     1.788113 C          1 UNL1 0.000
    20 C      -3.153962     0.503504     1.821068 C          1 UNL1 0.000
    21 C       0.369555     0.431455     2.974201 C          1 UNL1 0.000
    22 C       1.055617     0.438438     1.757312 C          1 UNL1 0.000
    23 C       0.360585     0.472586     0.542098 C          1 UNL1 0.000
    24 C      -1.042615     0.500363     0.572127 C          1 UNL1 0.000
    25 H      -8.093664     5.041183     3.138415 H          1 UNL1 0.000
    26 H      -9.240298     2.840429     3.160589 H          1 UNL1 0.000
    27 H      -4.289191     3.076348     3.038967 H          1 UNL1 0.000
    28 H      -5.613363     5.137794     3.078286 H          1 UNL1 0.000
    29 H      -9.297694    -1.732197     3.203204 H          1 UNL1 0.000
    30 H      -8.207003    -3.961245     3.213652 H          1 UNL1 0.000
    31 H      -5.730279    -4.121390     3.146225 H          1 UNL1 0.000
    32 H      -4.354342    -2.094844     3.069983 H          1 UNL1 0.000
    33 H      -3.656957     0.441671     5.188455 H          1 UNL1 0.000
    34 H      -1.194663     0.412690     5.167181 H          1 UNL1 0.000
    35 H      -3.724376     0.527540     0.894868 H          1 UNL1 0.000
    36 H       0.942220     0.406444     3.898516 H          1 UNL1 0.000
    37 H       2.143894     0.420615     1.760795 H          1 UNL1 0.000
    38 H      -1.589745     0.521116    -0.369419 H          1 UNL1 0.000
    39 C       1.089037     0.470699    -0.730752 C          1 UNL1 0.000
    40 C       1.212414     1.645376    -1.485948 C          1 UNL1 0.000
    41 C       1.921504     1.676277    -2.693504 C          1 UNL1 0.000
    42 C       2.506104     0.483192    -3.129707 C          1 UNL1 0.000
    43 C       2.403648    -0.709288    -2.415072 C          1 UNL1 0.000
    44 C       1.687445    -0.713110    -1.201803 C          1 UNL1 0.000
    45 N       3.252417     0.216803    -4.255792 N          1 UNL1 0.000
    46 C       3.620111    -1.102666    -4.279046 C          1 UNL1 0.000
    47 C       3.107055    -1.702022    -3.151505 C          1 UNL1 0.000
    48 H       0.756775     2.566467    -1.125236 H          1 UNL1 0.000
    49 H       2.012549     2.596508    -3.260913 H          1 UNL1 0.000
    50 H       1.598483    -1.635158    -0.633253 H          1 UNL1 0.000
    51 H       3.490995     0.901174    -4.959928 H          1 UNL1 0.000
    52 H       4.212609    -1.499581    -5.092240 H          1 UNL1 0.000
    53 H       3.224349    -2.743105    -2.880967 H          1 UNL1 0.000
@<TRIPOS>BOND
     1      1      2   2
     2      2      3   1
     3      3      4   2
     4      4      5   1
     5      5      6   2
     6      6      1   1
     7      4      7   1
     8      7      8   1
     9      8      9   2
    10      9     10   1
    11     10     11   2
    12     11     12   1
    13     12     13   2
    14     13      8   1
    15      3     14   1
    16      9     14   1
    17     15     16   2
    18     16     17   1
    19     17     18   2
    20     18     19   1
    21     19     20   2
    22     20     15   1
    23     18     21   1
    24     21     22   2
    25     22     23   1
    26     23     24   2
    27     24     19   1
    28      7     15   1
    29      1     25   1
    30      2     26   1
    31      5     27   1
    32      6     28   1
    33     10     29   1
    34     11     30   1
    35     12     31   1
    36     13     32   1
    37     16     33   1
    38     17     34   1
    39     20     35   1
    40     21     36   1
    41     22     37   1
    42     24     38   1
    43     39     40   2
    44     40     41   1
    45     41     42   2
    46     42     43   1
    47     43     44   2
    48     44     39   1
    49     42     45   1
    50     45     46   1
    51     46     47   2
    52     47     43   1
    53     40     48   1
    54     41     49   1
    55     44     50   1
    56     45     51   1
    57     46     52   1
    58     47     53   1
    59     23     39   1
