# Produced with molli package
@<TRIPOS>MOLECULE
I_5_R
50 55 0 0 0
SMALL
USER_CHARGES

@<TRIPOS>ATOM
     1 C      -7.627134     4.136276     3.050801 C          1 UNL1 0.000
     2 C      -8.235919     2.883937     3.042844 C          1 UNL1 0.000
     3 C      -7.453783     1.725314     3.002655 C          1 UNL1 0.000
     4 C      -6.051242     1.795040     2.970921 C          1 UNL1 0.000
     5 C      -5.457042     3.068975     2.977633 C          1 UNL1 0.000
     6 C      -6.238419     4.228649     3.017617 C          1 UNL1 0.000
     7 N      -5.290523     0.581566     2.932284 N          1 UNL1 0.000
     8 C      -6.014535    -0.655521     2.928178 C          1 UNL1 0.000
     9 C      -7.418390    -0.629548     2.960869 C          1 UNL1 0.000
    10 C      -8.165137    -1.812193     2.960437 C          1 UNL1 0.000
    11 C      -7.519042    -3.045326     2.926885 C          1 UNL1 0.000
    12 C      -6.128227    -3.094624     2.893677 C          1 UNL1 0.000
    13 C      -5.382359    -1.910979     2.894389 C          1 UNL1 0.000
    14 O      -8.147811     0.536847     2.997570 O          1 UNL1 0.000
    15 C      -3.863415     0.601844     2.933311 C          1 UNL1 0.000
    16 C      -3.159934     0.604414     4.142864 C          1 UNL1 0.000
    17 C      -1.764527     0.601670     4.145490 C          1 UNL1 0.000
    18 C      -1.047753     0.591436     2.939057 C          1 UNL1 0.000
    19 C      -1.748821     0.599552     1.711740 C          1 UNL1 0.000
    20 C      -3.153017     0.607407     1.723971 C          1 UNL1 0.000
    21 C       0.353354     0.569429     2.927273 C          1 UNL1 0.000
    22 C       1.055745     0.539249     1.719496 C          1 UNL1 0.000
    23 C       0.378105     0.543185     0.492049 C          1 UNL1 0.000
    24 C      -1.025601     0.589318     0.505806 C          1 UNL1 0.000
    25 H      -8.234004     5.037263     3.081741 H          1 UNL1 0.000
    26 H      -9.319300     2.805547     3.067702 H          1 UNL1 0.000
    27 H      -4.376377     3.180809     2.950292 H          1 UNL1 0.000
    28 H      -5.757480     5.203734     3.021848 H          1 UNL1 0.000
    29 H      -9.250423    -1.767401     2.987008 H          1 UNL1 0.000
    30 H      -8.098693    -3.964622     2.926898 H          1 UNL1 0.000
    31 H      -5.618332    -4.054494     2.867399 H          1 UNL1 0.000
    32 H      -4.298866    -1.989414     2.868186 H          1 UNL1 0.000
    33 H      -3.703921     0.603482     5.084263 H          1 UNL1 0.000
    34 H      -1.241663     0.600939     5.099219 H          1 UNL1 0.000
    35 H      -3.710561     0.608948     0.789571 H          1 UNL1 0.000
    36 H       0.912506     0.572787     3.860460 H          1 UNL1 0.000
    37 H       2.143670     0.527073     1.743828 H          1 UNL1 0.000
    38 H      -1.559564     0.606254    -0.443821 H          1 UNL1 0.000
    39 C       1.113628     0.486703    -0.774048 C          1 UNL1 0.000
    40 N       0.988738     1.569033    -1.584180 N          1 UNL1 0.000
    41 C       1.676638     1.564165    -2.754091 C          1 UNL1 0.000
    42 C       2.477704     0.507540    -3.154915 C          1 UNL1 0.000
    43 C       2.588761    -0.610635    -2.328772 C          1 UNL1 0.000
    44 C       1.896650    -0.617157    -1.117936 C          1 UNL1 0.000
    45 N       3.191758     0.578035    -4.419369 N          1 UNL1 0.000
    46 O       2.870996     1.472016    -5.213639 O          1 UNL1 0.000
    47 O       4.079160    -0.262625    -4.623193 O          1 UNL1 0.000
    48 H       1.553790     2.464166    -3.351728 H          1 UNL1 0.000
    49 H       3.196512    -1.468016    -2.607548 H          1 UNL1 0.000
    50 H       1.959750    -1.476622    -0.456233 H          1 UNL1 0.000
@<TRIPOS>BOND
     1      1      2   2
     2      2      3   1
     3      3      4   2
     4      4      5   1
     5      5      6   2
     6      6      1   1
     7      4      7   1
     8      7      8   1
     9      8      9   2
    10      9     10   1
    11     10     11   2
    12     11     12   1
    13     12     13   2
    14     13      8   1
    15      3     14   1
    16      9     14   1
    17     15     16   2
    18     16     17   1
    19     17     18   2
    20     18     19   1
    21     19     20   2
    22     20     15   1
    23     18     21   1
    24     21     22   2
    25     22     23   1
    26     23     24   2
    27     24     19   1
    28      7     15   1
    29      1     25   1
    30      2     26   1
    31      5     27   1
    32      6     28   1
    33     10     29   1
    34     11     30   1
    35     12     31   1
    36     13     32   1
    37     16     33   1
    38     17     34   1
    39     20     35   1
    40     21     36   1
    41     22     37   1
    42     24     38   1
    43     39     40   2
    44     40     41   1
    45     41     42   2
    46     42     43   1
    47     43     44   2
    48     44     39   1
    49     45     46   2
    50     45     47   1
    51     42     45   1
    52     41     48   1
    53     43     49   1
    54     44     50   1
    55     23     39   1
