# Produced with molli package
@<TRIPOS>MOLECULE
I_5_T
52 57 0 0 0
SMALL
USER_CHARGES

@<TRIPOS>ATOM
     1 C      -7.670899     4.146719     3.096948 C          1 UNL1 0.000
     2 C      -8.278266     2.893800     3.102479 C          1 UNL1 0.000
     3 C      -7.495033     1.735692     3.065327 C          1 UNL1 0.000
     4 C      -6.092760     1.806117     3.020143 C          1 UNL1 0.000
     5 C      -5.500128     3.080754     3.012561 C          1 UNL1 0.000
     6 C      -6.282546     4.240023     3.051904 C          1 UNL1 0.000
     7 N      -5.331089     0.592681     2.988073 N          1 UNL1 0.000
     8 C      -6.053841    -0.644662     3.025893 C          1 UNL1 0.000
     9 C      -7.457426    -0.619225     3.070963 C          1 UNL1 0.000
    10 C      -8.202790    -1.801969     3.113387 C          1 UNL1 0.000
    11 C      -7.555414    -3.034804     3.113229 C          1 UNL1 0.000
    12 C      -6.164906    -3.083614     3.068027 C          1 UNL1 0.000
    13 C      -5.420545    -1.899872     3.023269 C          1 UNL1 0.000
    14 O      -8.188119     0.546836     3.079388 O          1 UNL1 0.000
    15 C      -3.903594     0.613515     2.976041 C          1 UNL1 0.000
    16 C      -3.189926     0.614948     4.179586 C          1 UNL1 0.000
    17 C      -1.794619     0.618144     4.170619 C          1 UNL1 0.000
    18 C      -1.087356     0.619303     2.958554 C          1 UNL1 0.000
    19 C      -1.797779     0.624745     1.736318 C          1 UNL1 0.000
    20 C      -3.202809     0.622170     1.760602 C          1 UNL1 0.000
    21 C       0.314060     0.611923     2.937477 C          1 UNL1 0.000
    22 C       1.008619     0.607794     1.725526 C          1 UNL1 0.000
    23 C       0.321773     0.616928     0.505398 C          1 UNL1 0.000
    24 C      -1.081928     0.627675     0.525006 C          1 UNL1 0.000
    25 H      -8.278577     5.047168     3.128080 H          1 UNL1 0.000
    26 H      -9.361306     2.814281     3.137789 H          1 UNL1 0.000
    27 H      -4.419801     3.193240     2.977789 H          1 UNL1 0.000
    28 H      -5.802780     5.215659     3.047774 H          1 UNL1 0.000
    29 H      -9.287827    -1.757415     3.148401 H          1 UNL1 0.000
    30 H      -8.133648    -3.954284     3.148340 H          1 UNL1 0.000
    31 H      -5.653696    -4.043159     3.067693 H          1 UNL1 0.000
    32 H      -4.337198    -1.978138     2.987856 H          1 UNL1 0.000
    33 H      -3.725799     0.609096     5.125563 H          1 UNL1 0.000
    34 H      -1.263635     0.615791     5.119797 H          1 UNL1 0.000
    35 H      -3.767685     0.620912     0.830698 H          1 UNL1 0.000
    36 H       0.880348     0.607355     3.866065 H          1 UNL1 0.000
    37 H       2.096928     0.602456     1.736746 H          1 UNL1 0.000
    38 H      -1.622234     0.630154    -0.420696 H          1 UNL1 0.000
    39 C       1.059897     0.613317    -0.760516 C          1 UNL1 0.000
    40 C       1.231627     1.794672    -1.495148 C          1 UNL1 0.000
    41 C       1.960236     1.796688    -2.688801 C          1 UNL1 0.000
    42 C       2.524328     0.613512    -3.176736 C          1 UNL1 0.000
    43 C       2.355198    -0.569322    -2.448785 C          1 UNL1 0.000
    44 C       1.630040    -0.568603    -1.253713 C          1 UNL1 0.000
    45 C       3.328071     0.606024    -4.443113 C          1 UNL1 0.000
    46 H       0.806576     2.727983    -1.131416 H          1 UNL1 0.000
    47 H       2.085614     2.731521    -3.230272 H          1 UNL1 0.000
    48 H       2.790191    -1.500063    -2.806030 H          1 UNL1 0.000
    49 H       1.511831    -1.500237    -0.704092 H          1 UNL1 0.000
    50 H       2.965120    -0.174961    -5.119169 H          1 UNL1 0.000
    51 H       4.383369     0.423564    -4.216430 H          1 UNL1 0.000
    52 H       3.253057     1.562169    -4.971406 H          1 UNL1 0.000
@<TRIPOS>BOND
     1      1      2   2
     2      2      3   1
     3      3      4   2
     4      4      5   1
     5      5      6   2
     6      6      1   1
     7      4      7   1
     8      7      8   1
     9      8      9   2
    10      9     10   1
    11     10     11   2
    12     11     12   1
    13     12     13   2
    14     13      8   1
    15      3     14   1
    16      9     14   1
    17     15     16   2
    18     16     17   1
    19     17     18   2
    20     18     19   1
    21     19     20   2
    22     20     15   1
    23     18     21   1
    24     21     22   2
    25     22     23   1
    26     23     24   2
    27     24     19   1
    28      7     15   1
    29      1     25   1
    30      2     26   1
    31      5     27   1
    32      6     28   1
    33     10     29   1
    34     11     30   1
    35     12     31   1
    36     13     32   1
    37     16     33   1
    38     17     34   1
    39     20     35   1
    40     21     36   1
    41     22     37   1
    42     24     38   1
    43     39     40   2
    44     40     41   1
    45     41     42   2
    46     42     43   1
    47     43     44   2
    48     44     39   1
    49     42     45   1
    50     40     46   1
    51     41     47   1
    52     43     48   1
    53     44     49   1
    54     45     50   1
    55     45     51   1
    56     45     52   1
    57     23     39   1
