# Produced with molli package
@<TRIPOS>MOLECULE
I_5_P
53 58 0 0 0
SMALL
USER_CHARGES

@<TRIPOS>ATOM
     1 C      -7.542735     4.139704     3.201978 C          1 UNL1 0.000
     2 C      -8.169192     2.896145     3.188584 C          1 UNL1 0.000
     3 C      -7.404981     1.727451     3.109388 C          1 UNL1 0.000
     4 C      -6.003025     1.777976     3.042985 C          1 UNL1 0.000
     5 C      -5.391229     3.043811     3.051056 C          1 UNL1 0.000
     6 C      -6.154391     4.213449     3.131872 C          1 UNL1 0.000
     7 N      -5.259793     0.554415     2.970515 N          1 UNL1 0.000
     8 C      -6.000535    -0.672490     2.986293 C          1 UNL1 0.000
     9 C      -7.403058    -0.627055     3.052732 C          1 UNL1 0.000
    10 C      -8.166208    -1.798889     3.077495 C          1 UNL1 0.000
    11 C      -7.538145    -3.040926     3.038274 C          1 UNL1 0.000
    12 C      -6.149202    -3.109591     2.972304 C          1 UNL1 0.000
    13 C      -5.386865    -1.936552     2.945746 C          1 UNL1 0.000
    14 O      -8.115699     0.549159     3.104052 O          1 UNL1 0.000
    15 C      -3.832089     0.558209     2.962497 C          1 UNL1 0.000
    16 C      -3.122292     0.596272     4.167994 C          1 UNL1 0.000
    17 C      -1.727052     0.611436     4.163802 C          1 UNL1 0.000
    18 C      -1.015444     0.588220     2.954671 C          1 UNL1 0.000
    19 C      -1.722258     0.548338     1.730787 C          1 UNL1 0.000
    20 C      -3.127147     0.533107     1.750079 C          1 UNL1 0.000
    21 C       0.386177     0.603191     2.937261 C          1 UNL1 0.000
    22 C       1.084859     0.575527     1.727831 C          1 UNL1 0.000
    23 C       0.400901     0.535082     0.506990 C          1 UNL1 0.000
    24 C      -1.002798     0.524219     0.522520 C          1 UNL1 0.000
    25 H      -8.135653     5.048204     3.265849 H          1 UNL1 0.000
    26 H      -9.252543     2.832276     3.241334 H          1 UNL1 0.000
    27 H      -4.310355     3.141354     2.994746 H          1 UNL1 0.000
    28 H      -5.659567     5.181489     3.139796 H          1 UNL1 0.000
    29 H      -9.249782    -1.738596     3.130429 H          1 UNL1 0.000
    30 H      -8.130137    -3.952053     3.060246 H          1 UNL1 0.000
    31 H      -5.653328    -4.076708     2.942366 H          1 UNL1 0.000
    32 H      -4.305388    -2.030242     2.895271 H          1 UNL1 0.000
    33 H      -3.661671     0.615641     5.111828 H          1 UNL1 0.000
    34 H      -1.199833     0.641980     5.114633 H          1 UNL1 0.000
    35 H      -3.688617     0.504405     0.818465 H          1 UNL1 0.000
    36 H       0.949103     0.635395     3.867489 H          1 UNL1 0.000
    37 H       2.172946     0.587156     1.742371 H          1 UNL1 0.000
    38 H      -1.540282     0.489707    -0.424332 H          1 UNL1 0.000
    39 C       1.138945     0.496185    -0.757851 C          1 UNL1 0.000
    40 C       1.350616     1.667184    -1.503129 C          1 UNL1 0.000
    41 C       2.062961     1.629048    -2.704797 C          1 UNL1 0.000
    42 C       2.577051     0.418070    -3.161514 C          1 UNL1 0.000
    43 C       2.354588    -0.758492    -2.452862 C          1 UNL1 0.000
    44 C       1.647071    -0.716915    -1.249589 C          1 UNL1 0.000
    45 O       3.245675     0.345560    -4.352592 O          1 UNL1 0.000
    46 C       4.578645     0.834618    -4.204021 C          1 UNL1 0.000
    47 H       0.956165     2.617184    -1.148254 H          1 UNL1 0.000
    48 H       2.204064     2.538157    -3.281411 H          1 UNL1 0.000
    49 H       2.731301    -1.703361    -2.833001 H          1 UNL1 0.000
    50 H       1.484067    -1.639823    -0.696811 H          1 UNL1 0.000
    51 H       5.106001     0.659496    -5.146635 H          1 UNL1 0.000
    52 H       5.113293     0.296832    -3.412688 H          1 UNL1 0.000
    53 H       4.586670     1.911849    -4.007195 H          1 UNL1 0.000
@<TRIPOS>BOND
     1      1      2   2
     2      2      3   1
     3      3      4   2
     4      4      5   1
     5      5      6   2
     6      6      1   1
     7      4      7   1
     8      7      8   1
     9      8      9   2
    10      9     10   1
    11     10     11   2
    12     11     12   1
    13     12     13   2
    14     13      8   1
    15      3     14   1
    16      9     14   1
    17     15     16   2
    18     16     17   1
    19     17     18   2
    20     18     19   1
    21     19     20   2
    22     20     15   1
    23     18     21   1
    24     21     22   2
    25     22     23   1
    26     23     24   2
    27     24     19   1
    28      7     15   1
    29      1     25   1
    30      2     26   1
    31      5     27   1
    32      6     28   1
    33     10     29   1
    34     11     30   1
    35     12     31   1
    36     13     32   1
    37     16     33   1
    38     17     34   1
    39     20     35   1
    40     21     36   1
    41     22     37   1
    42     24     38   1
    43     39     40   2
    44     40     41   1
    45     41     42   2
    46     42     43   1
    47     43     44   2
    48     44     39   1
    49     45     46   1
    50     42     45   1
    51     40     47   1
    52     41     48   1
    53     43     49   1
    54     44     50   1
    55     46     51   1
    56     46     52   1
    57     46     53   1
    58     23     39   1
