# Produced with molli package
@<TRIPOS>MOLECULE
I_5_N
46 51 0 0 0
SMALL
USER_CHARGES

@<TRIPOS>ATOM
     1 C      -7.602437     4.031507     3.113765 C          1 UNL1 0.000
     2 C      -8.221247     2.783994     3.114864 C          1 UNL1 0.000
     3 C      -7.448284     1.618365     3.112447 C          1 UNL1 0.000
     4 C      -6.045059     1.676073     3.107249 C          1 UNL1 0.000
     5 C      -5.440685     2.945576     3.104877 C          1 UNL1 0.000
     6 C      -6.212729     4.112174     3.108907 C          1 UNL1 0.000
     7 N      -5.293420     0.455582     3.106359 N          1 UNL1 0.000
     8 C      -6.027074    -0.775041     3.120281 C          1 UNL1 0.000
     9 C      -7.431292    -0.736996     3.124814 C          1 UNL1 0.000
    10 C      -8.188046    -1.913003     3.139369 C          1 UNL1 0.000
    11 C      -7.551747    -3.151491     3.151412 C          1 UNL1 0.000
    12 C      -6.160877    -3.212596     3.147603 C          1 UNL1 0.000
    13 C      -5.404851    -2.035480     3.131373 C          1 UNL1 0.000
    14 O      -8.151751     0.435613     3.115670 O          1 UNL1 0.000
    15 C      -3.866274     0.468495     3.090106 C          1 UNL1 0.000
    16 C      -3.146092     0.487858     4.289392 C          1 UNL1 0.000
    17 C      -1.750595     0.524480     4.272594 C          1 UNL1 0.000
    18 C      -1.049896     0.543559     3.056413 C          1 UNL1 0.000
    19 C      -1.769880     0.514737     1.839097 C          1 UNL1 0.000
    20 C      -3.173000     0.476853     1.870938 C          1 UNL1 0.000
    21 C       0.352477     0.596435     3.024884 C          1 UNL1 0.000
    22 C       1.038253     0.623520     1.808237 C          1 UNL1 0.000
    23 C       0.330541     0.586569     0.605547 C          1 UNL1 0.000
    24 C      -1.068009     0.532138     0.622394 C          1 UNL1 0.000
    25 H      -8.202312     4.937708     3.116778 H          1 UNL1 0.000
    26 H      -9.305552     2.714836     3.118319 H          1 UNL1 0.000
    27 H      -4.358885     3.048717     3.101005 H          1 UNL1 0.000
    28 H      -5.723825     5.083284     3.108348 H          1 UNL1 0.000
    29 H      -9.273221    -1.858798     3.141988 H          1 UNL1 0.000
    30 H      -8.138993    -4.065863     3.163873 H          1 UNL1 0.000
    31 H      -5.658775    -4.176905     3.157408 H          1 UNL1 0.000
    32 H      -4.321685    -2.122856     3.128810 H          1 UNL1 0.000
    33 H      -3.676777     0.480740     5.238366 H          1 UNL1 0.000
    34 H      -1.214929     0.543868     5.218938 H          1 UNL1 0.000
    35 H      -3.743786     0.461523     0.944778 H          1 UNL1 0.000
    36 H       0.923954     0.620910     3.950093 H          1 UNL1 0.000
    37 H       2.125031     0.666672     1.807260 H          1 UNL1 0.000
    38 H      -1.613772     0.514784    -0.319157 H          1 UNL1 0.000
    39 C       1.045105     0.622810    -0.657300 C          1 UNL1 0.000
    40 C       1.162370    -0.501462    -1.449739 C          1 UNL1 0.000
    41 S       2.054977    -0.196531    -2.878965 S          1 UNL1 0.000
    42 C       2.290909     1.442127    -2.447935 C          1 UNL1 0.000
    43 C       1.706735     1.748243    -1.238254 C          1 UNL1 0.000
    44 H       0.773481    -1.493360    -1.261556 H          1 UNL1 0.000
    45 H       2.846127     2.101162    -3.101124 H          1 UNL1 0.000
    46 H       1.743805     2.735798    -0.794318 H          1 UNL1 0.000
@<TRIPOS>BOND
     1      1      2   2
     2      2      3   1
     3      3      4   2
     4      4      5   1
     5      5      6   2
     6      6      1   1
     7      4      7   1
     8      7      8   1
     9      8      9   2
    10      9     10   1
    11     10     11   2
    12     11     12   1
    13     12     13   2
    14     13      8   1
    15      3     14   1
    16      9     14   1
    17     15     16   2
    18     16     17   1
    19     17     18   2
    20     18     19   1
    21     19     20   2
    22     20     15   1
    23     18     21   1
    24     21     22   2
    25     22     23   1
    26     23     24   2
    27     24     19   1
    28      7     15   1
    29      1     25   1
    30      2     26   1
    31      5     27   1
    32      6     28   1
    33     10     29   1
    34     11     30   1
    35     12     31   1
    36     13     32   1
    37     16     33   1
    38     17     34   1
    39     20     35   1
    40     21     36   1
    41     22     37   1
    42     24     38   1
    43     39     40   2
    44     40     41   1
    45     41     42   1
    46     42     43   2
    47     43     39   1
    48     40     44   1
    49     42     45   1
    50     43     46   1
    51     23     39   1
