# Produced with molli package
@<TRIPOS>MOLECULE
I_5_M
50 55 0 0 0
SMALL
USER_CHARGES

@<TRIPOS>ATOM
     1 C      -7.587152     4.086655     3.127862 C          1 UNL1 0.000
     2 C      -8.213886     2.843441     3.106227 C          1 UNL1 0.000
     3 C      -7.448134     1.673345     3.083859 C          1 UNL1 0.000
     4 C      -6.044326     1.722031     3.077575 C          1 UNL1 0.000
     5 C      -5.431902     2.987283     3.096371 C          1 UNL1 0.000
     6 C      -6.196843     4.158430     3.123560 C          1 UNL1 0.000
     7 N      -5.300945     0.496870     3.058161 N          1 UNL1 0.000
     8 C      -6.043123    -0.729061     3.080548 C          1 UNL1 0.000
     9 C      -7.446934    -0.681842     3.088095 C          1 UNL1 0.000
    10 C      -8.211384    -1.852695     3.115676 C          1 UNL1 0.000
    11 C      -7.583306    -3.095198     3.140090 C          1 UNL1 0.000
    12 C      -6.192958    -3.165555     3.132853 C          1 UNL1 0.000
    13 C      -5.429353    -1.993677     3.101173 C          1 UNL1 0.000
    14 O      -8.159468     0.495353     3.071057 O          1 UNL1 0.000
    15 C      -3.873559     0.497157     3.045033 C          1 UNL1 0.000
    16 C      -3.156821     0.496243     4.246579 C          1 UNL1 0.000
    17 C      -1.761245     0.492138     4.233670 C          1 UNL1 0.000
    18 C      -1.056906     0.490251     3.019629 C          1 UNL1 0.000
    19 C      -1.771429     0.495677     1.800008 C          1 UNL1 0.000
    20 C      -3.175865     0.497352     1.827985 C          1 UNL1 0.000
    21 C       0.344732     0.483853     2.992557 C          1 UNL1 0.000
    22 C       1.035106     0.485923     1.777787 C          1 UNL1 0.000
    23 C       0.342680     0.497857     0.561054 C          1 UNL1 0.000
    24 C      -1.060820     0.500792     0.586340 C          1 UNL1 0.000
    25 H      -8.181411     4.996334     3.149156 H          1 UNL1 0.000
    26 H      -9.298630     2.780920     3.109687 H          1 UNL1 0.000
    27 H      -4.349486     3.083241     3.094377 H          1 UNL1 0.000
    28 H      -5.702145     5.126413     3.142469 H          1 UNL1 0.000
    29 H      -9.296182    -1.791344     3.120948 H          1 UNL1 0.000
    30 H      -8.176527    -4.005446     3.165449 H          1 UNL1 0.000
    31 H      -5.697140    -4.132942     3.153025 H          1 UNL1 0.000
    32 H      -4.346844    -2.088623     3.096954 H          1 UNL1 0.000
    33 H      -3.690398     0.497899     5.193912 H          1 UNL1 0.000
    34 H      -1.227904     0.490835     5.181623 H          1 UNL1 0.000
    35 H      -3.743842     0.498554     0.899882 H          1 UNL1 0.000
    36 H       0.914052     0.479588     3.919531 H          1 UNL1 0.000
    37 H       2.123394     0.485933     1.786626 H          1 UNL1 0.000
    38 H      -1.606641     0.506054    -0.356235 H          1 UNL1 0.000
    39 C       1.071161     0.516616    -0.709682 C          1 UNL1 0.000
    40 C       1.266497     1.720970    -1.402599 C          1 UNL1 0.000
    41 C       1.973533     1.746040    -2.608814 C          1 UNL1 0.000
    42 C       2.493361     0.562711    -3.140930 C          1 UNL1 0.000
    43 C       2.301996    -0.643940    -2.461515 C          1 UNL1 0.000
    44 C       1.596699    -0.664853    -1.253815 C          1 UNL1 0.000
    45 C       3.221081     0.587264    -4.375873 C          1 UNL1 0.000
    46 N       3.811509     0.607978    -5.374972 N          1 UNL1 0.000
    47 H       0.871447     2.651327    -0.997409 H          1 UNL1 0.000
    48 H       2.115422     2.694165    -3.124224 H          1 UNL1 0.000
    49 H       2.699246    -1.574203    -2.863491 H          1 UNL1 0.000
    50 H       1.455607    -1.612111    -0.735676 H          1 UNL1 0.000
@<TRIPOS>BOND
     1      1      2   2
     2      2      3   1
     3      3      4   2
     4      4      5   1
     5      5      6   2
     6      6      1   1
     7      4      7   1
     8      7      8   1
     9      8      9   2
    10      9     10   1
    11     10     11   2
    12     11     12   1
    13     12     13   2
    14     13      8   1
    15      3     14   1
    16      9     14   1
    17     15     16   2
    18     16     17   1
    19     17     18   2
    20     18     19   1
    21     19     20   2
    22     20     15   1
    23     18     21   1
    24     21     22   2
    25     22     23   1
    26     23     24   2
    27     24     19   1
    28      7     15   1
    29      1     25   1
    30      2     26   1
    31      5     27   1
    32      6     28   1
    33     10     29   1
    34     11     30   1
    35     12     31   1
    36     13     32   1
    37     16     33   1
    38     17     34   1
    39     20     35   1
    40     21     36   1
    41     22     37   1
    42     24     38   1
    43     39     40   2
    44     40     41   1
    45     41     42   2
    46     42     43   1
    47     43     44   2
    48     44     39   1
    49     45     46   3
    50     42     45   1
    51     40     47   1
    52     41     48   1
    53     43     49   1
    54     44     50   1
    55     23     39   1
