# Produced with molli package
@<TRIPOS>MOLECULE
I_5_O
48 53 0 0 0
SMALL
USER_CHARGES

@<TRIPOS>ATOM
     1 C      -7.588724     4.136503     3.042638 C          1 UNL1 0.000
     2 C      -8.205410     2.888256     3.020498 C          1 UNL1 0.000
     3 C      -7.430124     1.724394     3.006408 C          1 UNL1 0.000
     4 C      -6.026659     1.784626     3.012425 C          1 UNL1 0.000
     5 C      -5.424408     3.054477     3.034635 C          1 UNL1 0.000
     6 C      -6.198977     4.219426     3.049944 C          1 UNL1 0.000
     7 N      -5.273711     0.565947     2.999444 N          1 UNL1 0.000
     8 C      -6.005905    -0.666305     2.986018 C          1 UNL1 0.000
     9 C      -7.409805    -0.630901     2.981314 C          1 UNL1 0.000
    10 C      -8.164101    -1.808715     2.968686 C          1 UNL1 0.000
    11 C      -7.525593    -3.046286     2.961154 C          1 UNL1 0.000
    12 C      -6.134799    -3.104877     2.964661 C          1 UNL1 0.000
    13 C      -5.381500    -1.926121     2.975933 C          1 UNL1 0.000
    14 O      -8.131953     0.540549     2.987878 O          1 UNL1 0.000
    15 C      -3.846405     0.575182     3.000120 C          1 UNL1 0.000
    16 C      -3.140561     0.522170     4.207123 C          1 UNL1 0.000
    17 C      -1.744961     0.497797     4.205803 C          1 UNL1 0.000
    18 C      -1.030254     0.521804     2.997959 C          1 UNL1 0.000
    19 C      -1.734572     0.589065     1.774340 C          1 UNL1 0.000
    20 C      -3.138103     0.617703     1.790429 C          1 UNL1 0.000
    21 C       0.370800     0.476204     2.979504 C          1 UNL1 0.000
    22 C       1.068973     0.483202     1.768535 C          1 UNL1 0.000
    23 C       0.386933     0.549076     0.545834 C          1 UNL1 0.000
    24 C      -1.015682     0.615125     0.566783 C          1 UNL1 0.000
    25 H      -8.190123     5.041579     3.054139 H          1 UNL1 0.000
    26 H      -9.289529     2.816987     3.014687 H          1 UNL1 0.000
    27 H      -4.342598     3.158780     3.040817 H          1 UNL1 0.000
    28 H      -5.711702     5.191216     3.067230 H          1 UNL1 0.000
    29 H      -9.249337    -1.756680     2.964728 H          1 UNL1 0.000
    30 H      -8.110996    -3.961825     2.951863 H          1 UNL1 0.000
    31 H      -5.630375    -4.067951     2.958074 H          1 UNL1 0.000
    32 H      -4.298159    -2.011765     2.976366 H          1 UNL1 0.000
    33 H      -3.682553     0.493141     5.149096 H          1 UNL1 0.000
    34 H      -1.219759     0.452416     5.157137 H          1 UNL1 0.000
    35 H      -3.696499     0.661350     0.857526 H          1 UNL1 0.000
    36 H       0.933325     0.432403     3.909472 H          1 UNL1 0.000
    37 H       2.156604     0.451858     1.784060 H          1 UNL1 0.000
    38 H      -1.549920     0.678758    -0.380690 H          1 UNL1 0.000
    39 C       1.114155     0.537878    -0.725911 C          1 UNL1 0.000
    40 N       1.054216     1.680630    -1.451929 N          1 UNL1 0.000
    41 C       1.723914     1.705482    -2.625098 C          1 UNL1 0.000
    42 C       2.444489     0.634312    -3.125881 C          1 UNL1 0.000
    43 C       2.485324    -0.535407    -2.377834 C          1 UNL1 0.000
    44 C       1.815749    -0.586384    -1.158139 C          1 UNL1 0.000
    45 H       1.663700     2.643024    -3.170411 H          1 UNL1 0.000
    46 H       2.959314     0.709926    -4.076958 H          1 UNL1 0.000
    47 H       3.031817    -1.401465    -2.739682 H          1 UNL1 0.000
    48 H       1.830387    -1.492899    -0.561604 H          1 UNL1 0.000
@<TRIPOS>BOND
     1      1      2   2
     2      2      3   1
     3      3      4   2
     4      4      5   1
     5      5      6   2
     6      6      1   1
     7      4      7   1
     8      7      8   1
     9      8      9   2
    10      9     10   1
    11     10     11   2
    12     11     12   1
    13     12     13   2
    14     13      8   1
    15      3     14   1
    16      9     14   1
    17     15     16   2
    18     16     17   1
    19     17     18   2
    20     18     19   1
    21     19     20   2
    22     20     15   1
    23     18     21   1
    24     21     22   2
    25     22     23   1
    26     23     24   2
    27     24     19   1
    28      7     15   1
    29      1     25   1
    30      2     26   1
    31      5     27   1
    32      6     28   1
    33     10     29   1
    34     11     30   1
    35     12     31   1
    36     13     32   1
    37     16     33   1
    38     17     34   1
    39     20     35   1
    40     21     36   1
    41     22     37   1
    42     24     38   1
    43     39     40   2
    44     40     41   1
    45     41     42   2
    46     42     43   1
    47     43     44   2
    48     44     39   1
    49     41     45   1
    50     42     46   1
    51     43     47   1
    52     44     48   1
    53     23     39   1
