# Produced with molli package
@<TRIPOS>MOLECULE
I_5_Q
47 52 0 0 0
SMALL
USER_CHARGES

@<TRIPOS>ATOM
     1 C      -7.589172     4.119815     3.105327 C          1 UNL1 0.000
     2 C      -8.210690     2.874059     3.130806 C          1 UNL1 0.000
     3 C      -7.440975     1.706765     3.101800 C          1 UNL1 0.000
     4 C      -6.038315     1.760927     3.047455 C          1 UNL1 0.000
     5 C      -5.431182     3.028406     3.021369 C          1 UNL1 0.000
     6 C      -6.200184     4.196814     3.050087 C          1 UNL1 0.000
     7 N      -5.290801     0.538860     3.024493 N          1 UNL1 0.000
     8 C      -6.027756    -0.690180     3.061531 C          1 UNL1 0.000
     9 C      -7.430501    -0.648584     3.115539 C          1 UNL1 0.000
    10 C      -8.189133    -1.822954     3.156375 C          1 UNL1 0.000
    11 C      -7.556268    -3.063317     3.142375 C          1 UNL1 0.000
    12 C      -6.166873    -3.128124     3.085882 C          1 UNL1 0.000
    13 C      -5.409198    -1.952782     3.045049 C          1 UNL1 0.000
    14 O      -8.147322     0.525969     3.133955 O          1 UNL1 0.000
    15 C      -3.863387     0.542569     3.023089 C          1 UNL1 0.000
    16 C      -3.158680     0.508008     4.231889 C          1 UNL1 0.000
    17 C      -1.763789     0.481716     4.232902 C          1 UNL1 0.000
    18 C      -1.047738     0.486719     3.026439 C          1 UNL1 0.000
    19 C      -1.749550     0.536163     1.799604 C          1 UNL1 0.000
    20 C      -3.153587     0.564666     1.813746 C          1 UNL1 0.000
    21 C       0.352580     0.441359     3.012792 C          1 UNL1 0.000
    22 C       1.055024     0.434053     1.804837 C          1 UNL1 0.000
    23 C       0.377649     0.484763     0.577919 C          1 UNL1 0.000
    24 C      -1.025692     0.547826     0.594155 C          1 UNL1 0.000
    25 H      -8.186299     5.027507     3.128483 H          1 UNL1 0.000
    26 H      -9.294289     2.807401     3.174394 H          1 UNL1 0.000
    27 H      -4.349874     3.128289     2.978029 H          1 UNL1 0.000
    28 H      -5.709307     5.166723     3.029191 H          1 UNL1 0.000
    29 H      -9.273309    -1.766118     3.199529 H          1 UNL1 0.000
    30 H      -8.145009    -3.976232     3.174573 H          1 UNL1 0.000
    31 H      -5.667108    -4.093590     3.072989 H          1 UNL1 0.000
    32 H      -4.327291    -2.043419     2.999074 H          1 UNL1 0.000
    33 H      -3.702008     0.495801     5.173514 H          1 UNL1 0.000
    34 H      -1.240389     0.451443     5.185981 H          1 UNL1 0.000
    35 H      -3.711398     0.594163     0.879791 H          1 UNL1 0.000
    36 H       0.911802     0.411375     3.945728 H          1 UNL1 0.000
    37 H       2.142948     0.408102     1.829910 H          1 UNL1 0.000
    38 H      -1.559404     0.599640    -0.354789 H          1 UNL1 0.000
    39 C       1.111898     0.471114    -0.688016 C          1 UNL1 0.000
    40 N       0.988083     1.572362    -1.472404 N          1 UNL1 0.000
    41 C       1.696626     1.558258    -2.625532 C          1 UNL1 0.000
    42 C       2.488769     0.486678    -3.001275 C          1 UNL1 0.000
    43 N       2.612005    -0.622854    -2.240660 N          1 UNL1 0.000
    44 C       1.908833    -0.603410    -1.080677 C          1 UNL1 0.000
    45 H       1.612290     2.444173    -3.244515 H          1 UNL1 0.000
    46 H       3.048784     0.493063    -3.929341 H          1 UNL1 0.000
    47 H       1.998777    -1.494622    -0.468296 H          1 UNL1 0.000
@<TRIPOS>BOND
     1      1      2   2
     2      2      3   1
     3      3      4   2
     4      4      5   1
     5      5      6   2
     6      6      1   1
     7      4      7   1
     8      7      8   1
     9      8      9   2
    10      9     10   1
    11     10     11   2
    12     11     12   1
    13     12     13   2
    14     13      8   1
    15      3     14   1
    16      9     14   1
    17     15     16   2
    18     16     17   1
    19     17     18   2
    20     18     19   1
    21     19     20   2
    22     20     15   1
    23     18     21   1
    24     21     22   2
    25     22     23   1
    26     23     24   2
    27     24     19   1
    28      7     15   1
    29      1     25   1
    30      2     26   1
    31      5     27   1
    32      6     28   1
    33     10     29   1
    34     11     30   1
    35     12     31   1
    36     13     32   1
    37     16     33   1
    38     17     34   1
    39     20     35   1
    40     21     36   1
    41     22     37   1
    42     24     38   1
    43     39     40   2
    44     40     41   1
    45     41     42   2
    46     42     43   1
    47     43     44   2
    48     44     39   1
    49     41     45   1
    50     42     46   1
    51     44     47   1
    52     23     39   1
