# Produced with molli package
@<TRIPOS>MOLECULE
I_6_N
46 51 0 0 0
SMALL
USER_CHARGES

@<TRIPOS>ATOM
     1 C      -6.099792     4.096092     0.508970 C          1 UNL1 0.000
     2 C      -6.725150     2.852134     0.530289 C          1 UNL1 0.000
     3 C      -5.958169     1.682784     0.538404 C          1 UNL1 0.000
     4 C      -4.554578     1.733403     0.526269 C          1 UNL1 0.000
     5 C      -3.943365     2.998890     0.502543 C          1 UNL1 0.000
     6 C      -4.709617     4.169295     0.494834 C          1 UNL1 0.000
     7 N      -3.810009     0.508518     0.527928 N          1 UNL1 0.000
     8 C      -4.550943    -0.718894     0.546980 C          1 UNL1 0.000
     9 C      -5.954523    -0.672853     0.552159 C          1 UNL1 0.000
    10 C      -6.717305    -1.844984     0.554217 C          1 UNL1 0.000
    11 C      -6.087553    -3.087001     0.554873 C          1 UNL1 0.000
    12 C      -4.697140    -3.155622     0.556209 C          1 UNL1 0.000
    13 C      -3.935194    -1.982560     0.552801 C          1 UNL1 0.000
    14 O      -6.668041     0.503840     0.551269 O          1 UNL1 0.000
    15 C      -2.373595     0.509253     0.473453 C          1 UNL1 0.000
    16 C      -1.667860     0.572163     1.685480 C          1 UNL1 0.000
    17 C      -0.278842     0.563860     1.690101 C          1 UNL1 0.000
    18 C       0.428550     0.489062     0.482956 C          1 UNL1 0.000
    19 C      -0.254963     0.429909    -0.763657 C          1 UNL1 0.000
    20 C      -1.675509     0.441271    -0.766650 C          1 UNL1 0.000
    21 C       0.415624     0.356019    -2.010243 C          1 UNL1 0.000
    22 C      -0.276249     0.297399    -3.220148 C          1 UNL1 0.000
    23 C      -1.661148     0.311566    -3.219625 C          1 UNL1 0.000
    24 C      -2.349151     0.383170    -2.009345 C          1 UNL1 0.000
    25 H      -6.694967     5.005383     0.500925 H          1 UNL1 0.000
    26 H      -7.809802     2.788691     0.538031 H          1 UNL1 0.000
    27 H      -2.861254     3.095944     0.485192 H          1 UNL1 0.000
    28 H      -4.215994     5.137827     0.475147 H          1 UNL1 0.000
    29 H      -7.802187    -1.785403     0.553068 H          1 UNL1 0.000
    30 H      -6.679427    -3.998469     0.553955 H          1 UNL1 0.000
    31 H      -4.199821    -4.122467     0.557090 H          1 UNL1 0.000
    32 H      -2.852603    -2.076154     0.550157 H          1 UNL1 0.000
    33 H      -2.212360     0.624989     2.625435 H          1 UNL1 0.000
    34 H       0.251678     0.613650     2.638676 H          1 UNL1 0.000
    35 H       1.503389     0.341532    -2.051644 H          1 UNL1 0.000
    36 H       0.270476     0.240618    -4.157493 H          1 UNL1 0.000
    37 H      -2.211651     0.266442    -4.155357 H          1 UNL1 0.000
    38 H      -3.437499     0.392903    -2.043463 H          1 UNL1 0.000
    39 C       1.884505     0.481058     0.560469 C          1 UNL1 0.000
    40 C       2.585174    -0.695675     0.735906 C          1 UNL1 0.000
    41 S       4.277397    -0.439298     0.779908 S          1 UNL1 0.000
    42 C       4.083673     1.247833     0.571179 C          1 UNL1 0.000
    43 C       2.757766     1.608617     0.470948 C          1 UNL1 0.000
    44 H       2.190110    -1.698192     0.833435 H          1 UNL1 0.000
    45 H       4.950693     1.892806     0.531311 H          1 UNL1 0.000
    46 H       2.428488     2.631505     0.332892 H          1 UNL1 0.000
@<TRIPOS>BOND
     1      1      2   2
     2      2      3   1
     3      3      4   2
     4      4      5   1
     5      5      6   2
     6      6      1   1
     7      4      7   1
     8      7      8   1
     9      8      9   2
    10      9     10   1
    11     10     11   2
    12     11     12   1
    13     12     13   2
    14     13      8   1
    15      3     14   1
    16      9     14   1
    17     15     16   2
    18     16     17   1
    19     17     18   2
    20     18     19   1
    21     19     20   2
    22     20     15   1
    23     19     21   1
    24     21     22   2
    25     22     23   1
    26     23     24   2
    27     24     20   1
    28      7     15   1
    29      1     25   1
    30      2     26   1
    31      5     27   1
    32      6     28   1
    33     10     29   1
    34     11     30   1
    35     12     31   1
    36     13     32   1
    37     16     33   1
    38     17     34   1
    39     21     35   1
    40     22     36   1
    41     23     37   1
    42     24     38   1
    43     39     40   2
    44     40     41   1
    45     41     42   1
    46     42     43   2
    47     43     39   1
    48     40     44   1
    49     42     45   1
    50     43     46   1
    51     18     39   1
