# Produced with molli package
@<TRIPOS>MOLECULE
I_6_S
54 59 0 0 0
SMALL
USER_CHARGES

@<TRIPOS>ATOM
     1 C      -5.992177     4.125527     0.504104 C          1 UNL1 0.000
     2 C      -6.637513     2.892559     0.454056 C          1 UNL1 0.000
     3 C      -5.890690     1.710263     0.462934 C          1 UNL1 0.000
     4 C      -4.487554     1.737065     0.512790 C          1 UNL1 0.000
     5 C      -3.855874     2.991891     0.560548 C          1 UNL1 0.000
     6 C      -4.602050     4.175010     0.559321 C          1 UNL1 0.000
     7 N      -3.762551     0.499914     0.510757 N          1 UNL1 0.000
     8 C      -4.523978    -0.714639     0.508906 C          1 UNL1 0.000
     9 C      -5.926162    -0.644813     0.458858 C          1 UNL1 0.000
    10 C      -6.709378    -1.803238     0.445398 C          1 UNL1 0.000
    11 C      -6.102296    -3.055432     0.491147 C          1 UNL1 0.000
    12 C      -4.714130    -3.147576     0.546661 C          1 UNL1 0.000
    13 C      -3.931179    -1.988031     0.552283 C          1 UNL1 0.000
    14 O      -6.618695     0.543637     0.413521 O          1 UNL1 0.000
    15 C      -2.326818     0.482357     0.441313 C          1 UNL1 0.000
    16 C      -1.605894     0.476004     1.644162 C          1 UNL1 0.000
    17 C      -0.215831     0.482012     1.630217 C          1 UNL1 0.000
    18 C       0.491935     0.495139     0.416782 C          1 UNL1 0.000
    19 C      -0.221200     0.497970    -0.819178 C          1 UNL1 0.000
    20 C      -1.642507     0.488900    -0.806744 C          1 UNL1 0.000
    21 C       0.432568     0.513171    -2.076220 C          1 UNL1 0.000
    22 C      -0.272349     0.513815    -3.280173 C          1 UNL1 0.000
    23 C      -1.656593     0.500681    -3.263748 C          1 UNL1 0.000
    24 C      -2.330292     0.489555    -2.043524 C          1 UNL1 0.000
    25 H      -6.571828     5.044793     0.499971 H          1 UNL1 0.000
    26 H      -7.722171     2.847872     0.408708 H          1 UNL1 0.000
    27 H      -2.772938     3.070180     0.601133 H          1 UNL1 0.000
    28 H      -4.092798     5.134675     0.600227 H          1 UNL1 0.000
    29 H      -7.792140    -1.724858     0.399839 H          1 UNL1 0.000
    30 H      -6.710034    -3.956415     0.483509 H          1 UNL1 0.000
    31 H      -4.235116    -4.122913     0.584426 H          1 UNL1 0.000
    32 H      -2.851098    -2.099501     0.592943 H          1 UNL1 0.000
    33 H      -2.138164     0.470294     2.592500 H          1 UNL1 0.000
    34 H       0.322280     0.476631     2.576483 H          1 UNL1 0.000
    35 H       1.519475     0.524256    -2.133539 H          1 UNL1 0.000
    36 H       0.264220     0.523620    -4.225048 H          1 UNL1 0.000
    37 H      -2.217529     0.499358    -4.194324 H          1 UNL1 0.000
    38 H      -3.418851     0.480073    -2.065358 H          1 UNL1 0.000
    39 C       1.963487     0.505488     0.471071 C          1 UNL1 0.000
    40 C       2.691225    -0.688238     0.390782 C          1 UNL1 0.000
    41 C       4.089431    -0.671433     0.396490 C          1 UNL1 0.000
    42 C       4.793443     0.538430     0.488791 C          1 UNL1 0.000
    43 C       4.070999     1.731104     0.597606 C          1 UNL1 0.000
    44 C       2.669435     1.711956     0.584704 C          1 UNL1 0.000
    45 C       6.288345     0.476921     0.460054 C          1 UNL1 0.000
    46 C       7.118381     1.735142     0.468380 C          1 UNL1 0.000
    47 O       6.844453    -0.622516     0.439471 O          1 UNL1 0.000
    48 H       2.171314    -1.641055     0.307554 H          1 UNL1 0.000
    49 H       4.627293    -1.615505     0.320280 H          1 UNL1 0.000
    50 H       4.556928     2.696033     0.691099 H          1 UNL1 0.000
    51 H       2.124375     2.652558     0.651465 H          1 UNL1 0.000
    52 H       7.581658     1.849797     1.451911 H          1 UNL1 0.000
    53 H       6.556007     2.635660     0.227880 H          1 UNL1 0.000
    54 H       7.899098     1.639370    -0.293073 H          1 UNL1 0.000
@<TRIPOS>BOND
     1      1      2   2
     2      2      3   1
     3      3      4   2
     4      4      5   1
     5      5      6   2
     6      6      1   1
     7      4      7   1
     8      7      8   1
     9      8      9   2
    10      9     10   1
    11     10     11   2
    12     11     12   1
    13     12     13   2
    14     13      8   1
    15      3     14   1
    16      9     14   1
    17     15     16   2
    18     16     17   1
    19     17     18   2
    20     18     19   1
    21     19     20   2
    22     20     15   1
    23     19     21   1
    24     21     22   2
    25     22     23   1
    26     23     24   2
    27     24     20   1
    28      7     15   1
    29      1     25   1
    30      2     26   1
    31      5     27   1
    32      6     28   1
    33     10     29   1
    34     11     30   1
    35     12     31   1
    36     13     32   1
    37     16     33   1
    38     17     34   1
    39     21     35   1
    40     22     36   1
    41     23     37   1
    42     24     38   1
    43     39     40   2
    44     40     41   1
    45     41     42   2
    46     42     43   1
    47     43     44   2
    48     44     39   1
    49     42     45   1
    50     45     46   1
    51     45     47   2
    52     40     48   1
    53     41     49   1
    54     43     50   1
    55     44     51   1
    56     46     52   1
    57     46     53   1
    58     46     54   1
    59     18     39   1
