# Produced with molli package
@<TRIPOS>MOLECULE
I_6_L
53 59 0 0 0
SMALL
USER_CHARGES

@<TRIPOS>ATOM
     1 C      -6.104431     4.074862     0.359940 C          1 UNL1 0.000
     2 C      -6.728446     2.831043     0.411316 C          1 UNL1 0.000
     3 C      -5.960283     1.662789     0.441092 C          1 UNL1 0.000
     4 C      -4.556936     1.714460     0.418741 C          1 UNL1 0.000
     5 C      -3.947037     2.979859     0.369055 C          1 UNL1 0.000
     6 C      -4.714384     4.149110     0.339632 C          1 UNL1 0.000
     7 N      -3.810831     0.490556     0.439596 N          1 UNL1 0.000
     8 C      -4.549940    -0.736734     0.489436 C          1 UNL1 0.000
     9 C      -5.953521    -0.691825     0.511848 C          1 UNL1 0.000
    10 C      -6.714985    -1.864125     0.553698 C          1 UNL1 0.000
    11 C      -6.083943    -3.105301     0.573511 C          1 UNL1 0.000
    12 C      -4.693620    -3.172850     0.550508 C          1 UNL1 0.000
    13 C      -3.933003    -1.999594     0.507976 C          1 UNL1 0.000
    14 O      -6.668552     0.483840     0.489564 O          1 UNL1 0.000
    15 C      -2.374183     0.492682     0.396148 C          1 UNL1 0.000
    16 C      -1.677479     0.488749     1.613472 C          1 UNL1 0.000
    17 C      -0.287737     0.487976     1.627521 C          1 UNL1 0.000
    18 C       0.443373     0.492390     0.428361 C          1 UNL1 0.000
    19 C      -0.244433     0.498429    -0.821284 C          1 UNL1 0.000
    20 C      -1.665815     0.497236    -0.837700 C          1 UNL1 0.000
    21 C       0.435079     0.505339    -2.064050 C          1 UNL1 0.000
    22 C      -0.245248     0.509800    -3.281912 C          1 UNL1 0.000
    23 C      -1.630000     0.506397    -3.293740 C          1 UNL1 0.000
    24 C      -2.328677     0.499442    -2.087631 C          1 UNL1 0.000
    25 H      -6.700476     4.983226     0.334953 H          1 UNL1 0.000
    26 H      -7.812925     2.766786     0.426583 H          1 UNL1 0.000
    27 H      -2.864881     3.077004     0.347724 H          1 UNL1 0.000
    28 H      -4.221473     5.117285     0.298450 H          1 UNL1 0.000
    29 H      -7.799763    -1.805243     0.568729 H          1 UNL1 0.000
    30 H      -6.674693    -4.016930     0.604704 H          1 UNL1 0.000
    31 H      -4.195183    -4.139017     0.563116 H          1 UNL1 0.000
    32 H      -2.850464    -2.092197     0.485127 H          1 UNL1 0.000
    33 H      -2.227947     0.484920     2.551257 H          1 UNL1 0.000
    34 H       0.233089     0.482063     2.583423 H          1 UNL1 0.000
    35 H       1.523575     0.506678    -2.097014 H          1 UNL1 0.000
    36 H       0.311241     0.514669    -4.215076 H          1 UNL1 0.000
    37 H      -2.171440     0.508636    -4.235629 H          1 UNL1 0.000
    38 H      -3.416658     0.495623    -2.130347 H          1 UNL1 0.000
    39 C       1.914182     0.487847     0.512759 C          1 UNL1 0.000
    40 C       2.626349     1.693985     0.578781 C          1 UNL1 0.000
    41 C       4.025219     1.722197     0.624404 C          1 UNL1 0.000
    42 C       4.696346     0.495609     0.601904 C          1 UNL1 0.000
    43 C       4.028612    -0.727083     0.547312 C          1 UNL1 0.000
    44 C       2.620490    -0.729819     0.507509 C          1 UNL1 0.000
    45 N       6.045116     0.219188     0.622174 N          1 UNL1 0.000
    46 C       6.251694    -1.134381     0.581791 C          1 UNL1 0.000
    47 C       5.020037    -1.746667     0.538143 C          1 UNL1 0.000
    48 H       2.083729     2.638281     0.582523 H          1 UNL1 0.000
    49 H       4.560792     2.664752     0.666792 H          1 UNL1 0.000
    50 H       2.083960    -1.673676     0.456162 H          1 UNL1 0.000
    51 H       6.772798     0.919499     0.656763 H          1 UNL1 0.000
    52 H       7.253002    -1.543362     0.586549 H          1 UNL1 0.000
    53 H       4.846778    -2.814019     0.498541 H          1 UNL1 0.000
@<TRIPOS>BOND
     1      1      2   2
     2      2      3   1
     3      3      4   2
     4      4      5   1
     5      5      6   2
     6      6      1   1
     7      4      7   1
     8      7      8   1
     9      8      9   2
    10      9     10   1
    11     10     11   2
    12     11     12   1
    13     12     13   2
    14     13      8   1
    15      3     14   1
    16      9     14   1
    17     15     16   2
    18     16     17   1
    19     17     18   2
    20     18     19   1
    21     19     20   2
    22     20     15   1
    23     19     21   1
    24     21     22   2
    25     22     23   1
    26     23     24   2
    27     24     20   1
    28      7     15   1
    29      1     25   1
    30      2     26   1
    31      5     27   1
    32      6     28   1
    33     10     29   1
    34     11     30   1
    35     12     31   1
    36     13     32   1
    37     16     33   1
    38     17     34   1
    39     21     35   1
    40     22     36   1
    41     23     37   1
    42     24     38   1
    43     39     40   2
    44     40     41   1
    45     41     42   2
    46     42     43   1
    47     43     44   2
    48     44     39   1
    49     42     45   1
    50     45     46   1
    51     46     47   2
    52     47     43   1
    53     40     48   1
    54     41     49   1
    55     44     50   1
    56     45     51   1
    57     46     52   1
    58     47     53   1
    59     18     39   1
