# Produced with molli package
@<TRIPOS>MOLECULE
I_6_P
53 58 0 0 0
SMALL
USER_CHARGES

@<TRIPOS>ATOM
     1 C      -6.153728     4.098260     0.617326 C          1 UNL1 0.000
     2 C      -6.759645     2.844629     0.617641 C          1 UNL1 0.000
     3 C      -5.975405     1.687872     0.565891 C          1 UNL1 0.000
     4 C      -4.573498     1.760619     0.516174 C          1 UNL1 0.000
     5 C      -3.982307     3.035679     0.511700 C          1 UNL1 0.000
     6 C      -4.765839     4.193605     0.563107 C          1 UNL1 0.000
     7 N      -3.811103     0.548132     0.460572 N          1 UNL1 0.000
     8 C      -4.533950    -0.690600     0.454974 C          1 UNL1 0.000
     9 C      -5.937335    -0.666416     0.500468 C          1 UNL1 0.000
    10 C      -6.682994    -1.849542     0.484768 C          1 UNL1 0.000
    11 C      -6.035985    -3.081149     0.424450 C          1 UNL1 0.000
    12 C      -4.645366    -3.128457     0.382904 C          1 UNL1 0.000
    13 C      -3.900652    -1.944444     0.399500 C          1 UNL1 0.000
    14 O      -6.667464     0.498345     0.561768 O          1 UNL1 0.000
    15 C      -2.374453     0.570487     0.416023 C          1 UNL1 0.000
    16 C      -1.677824     0.638175     1.631834 C          1 UNL1 0.000
    17 C      -0.288004     0.633145     1.647543 C          1 UNL1 0.000
    18 C       0.444108     0.558333     0.451399 C          1 UNL1 0.000
    19 C      -0.243631     0.502538    -0.797658 C          1 UNL1 0.000
    20 C      -1.664829     0.509596    -0.815555 C          1 UNL1 0.000
    21 C       0.436465     0.437043    -2.038661 C          1 UNL1 0.000
    22 C      -0.243316     0.377229    -3.255441 C          1 UNL1 0.000
    23 C      -1.627803     0.384917    -3.268439 C          1 UNL1 0.000
    24 C      -2.327217     0.452390    -2.064570 C          1 UNL1 0.000
    25 H      -6.762301     4.997834     0.655875 H          1 UNL1 0.000
    26 H      -7.842504     2.763748     0.655556 H          1 UNL1 0.000
    27 H      -2.902806     3.149851     0.462306 H          1 UNL1 0.000
    28 H      -4.287473     5.169924     0.557724 H          1 UNL1 0.000
    29 H      -7.768140    -1.806485     0.518043 H          1 UNL1 0.000
    30 H      -6.614538    -4.000985     0.409629 H          1 UNL1 0.000
    31 H      -4.134288    -4.086878     0.334992 H          1 UNL1 0.000
    32 H      -2.817334    -2.021552     0.362508 H          1 UNL1 0.000
    33 H      -2.229227     0.684462     2.568078 H          1 UNL1 0.000
    34 H       0.230902     0.675972     2.603443 H          1 UNL1 0.000
    35 H       1.524773     0.432694    -2.072121 H          1 UNL1 0.000
    36 H       0.313802     0.325877    -4.186964 H          1 UNL1 0.000
    37 H      -2.168663     0.339309    -4.209634 H          1 UNL1 0.000
    38 H      -3.415089     0.459577    -2.108373 H          1 UNL1 0.000
    39 C       1.913851     0.519421     0.537764 C          1 UNL1 0.000
    40 C       2.664416     1.704820     0.597065 C          1 UNL1 0.000
    41 C       4.060947     1.662518     0.633166 C          1 UNL1 0.000
    42 C       4.713419     0.431631     0.626196 C          1 UNL1 0.000
    43 C       3.988076    -0.753816     0.557993 C          1 UNL1 0.000
    44 C       2.593251    -0.710128     0.526791 C          1 UNL1 0.000
    45 O       6.078664     0.354028     0.595645 O          1 UNL1 0.000
    46 C       6.632061     0.687282     1.867811 C          1 UNL1 0.000
    47 H       2.160304     2.669108     0.589683 H          1 UNL1 0.000
    48 H       4.630120     2.587115     0.642241 H          1 UNL1 0.000
    49 H       4.505445    -1.708002     0.523175 H          1 UNL1 0.000
    50 H       2.032848    -1.641201     0.471001 H          1 UNL1 0.000
    51 H       7.706527     0.484170     1.827173 H          1 UNL1 0.000
    52 H       6.200968     0.068192     2.662737 H          1 UNL1 0.000
    53 H       6.497538     1.750135     2.093316 H          1 UNL1 0.000
@<TRIPOS>BOND
     1      1      2   2
     2      2      3   1
     3      3      4   2
     4      4      5   1
     5      5      6   2
     6      6      1   1
     7      4      7   1
     8      7      8   1
     9      8      9   2
    10      9     10   1
    11     10     11   2
    12     11     12   1
    13     12     13   2
    14     13      8   1
    15      3     14   1
    16      9     14   1
    17     15     16   2
    18     16     17   1
    19     17     18   2
    20     18     19   1
    21     19     20   2
    22     20     15   1
    23     19     21   1
    24     21     22   2
    25     22     23   1
    26     23     24   2
    27     24     20   1
    28      7     15   1
    29      1     25   1
    30      2     26   1
    31      5     27   1
    32      6     28   1
    33     10     29   1
    34     11     30   1
    35     12     31   1
    36     13     32   1
    37     16     33   1
    38     17     34   1
    39     21     35   1
    40     22     36   1
    41     23     37   1
    42     24     38   1
    43     39     40   2
    44     40     41   1
    45     41     42   2
    46     42     43   1
    47     43     44   2
    48     44     39   1
    49     45     46   1
    50     42     45   1
    51     40     47   1
    52     41     48   1
    53     43     49   1
    54     44     50   1
    55     46     51   1
    56     46     52   1
    57     46     53   1
    58     18     39   1
