# Produced with molli package
@<TRIPOS>MOLECULE
I_6_K
51 56 0 0 0
SMALL
USER_CHARGES

@<TRIPOS>ATOM
     1 C      -6.125069     3.989330     0.613226 C          1 UNL1 0.000
     2 C      -6.737438     2.738883     0.588891 C          1 UNL1 0.000
     3 C      -5.958562     1.577428     0.589154 C          1 UNL1 0.000
     4 C      -4.555845     1.642848     0.608862 C          1 UNL1 0.000
     5 C      -3.957748     2.914671     0.634416 C          1 UNL1 0.000
     6 C      -4.735914     4.077059     0.637681 C          1 UNL1 0.000
     7 N      -3.797847     0.425983     0.594601 N          1 UNL1 0.000
     8 C      -4.525434    -0.809181     0.584270 C          1 UNL1 0.000
     9 C      -5.929419    -0.777981     0.565905 C          1 UNL1 0.000
    10 C      -6.679488    -1.957989     0.542713 C          1 UNL1 0.000
    11 C      -6.036464    -3.193161     0.542000 C          1 UNL1 0.000
    12 C      -4.645514    -3.247066     0.564141 C          1 UNL1 0.000
    13 C      -3.896139    -2.066038     0.583907 C          1 UNL1 0.000
    14 O      -6.655478     0.391095     0.561807 O          1 UNL1 0.000
    15 C      -2.362673     0.445029     0.523284 C          1 UNL1 0.000
    16 C      -1.641483     0.440411     1.725702 C          1 UNL1 0.000
    17 C      -0.252127     0.463808     1.710791 C          1 UNL1 0.000
    18 C       0.454506     0.492196     0.496750 C          1 UNL1 0.000
    19 C      -0.258621     0.495328    -0.738752 C          1 UNL1 0.000
    20 C      -1.679665     0.471418    -0.724939 C          1 UNL1 0.000
    21 C       0.393615     0.523532    -1.996196 C          1 UNL1 0.000
    22 C      -0.313415     0.526914    -3.199105 C          1 UNL1 0.000
    23 C      -1.697602     0.503070    -3.181057 C          1 UNL1 0.000
    24 C      -2.369398     0.475943    -1.960315 C          1 UNL1 0.000
    25 H      -6.729576     4.892499     0.612214 H          1 UNL1 0.000
    26 H      -7.821220     2.664467     0.567892 H          1 UNL1 0.000
    27 H      -2.876713     3.022855     0.649822 H          1 UNL1 0.000
    28 H      -4.252477     5.050716     0.656912 H          1 UNL1 0.000
    29 H      -7.764789    -1.909851     0.523434 H          1 UNL1 0.000
    30 H      -6.618564    -4.110741     0.523195 H          1 UNL1 0.000
    31 H      -4.138284    -4.208735     0.563643 H          1 UNL1 0.000
    32 H      -2.812745    -2.147716     0.596610 H          1 UNL1 0.000
    33 H      -2.173078     0.419978     2.674286 H          1 UNL1 0.000
    34 H       0.285896     0.460797     2.657173 H          1 UNL1 0.000
    35 H       1.480097     0.543704    -2.055199 H          1 UNL1 0.000
    36 H       0.220965     0.548387    -4.145080 H          1 UNL1 0.000
    37 H      -2.260168     0.505753    -4.110711 H          1 UNL1 0.000
    38 H      -3.457958     0.458138    -1.980604 H          1 UNL1 0.000
    39 C       1.925540     0.521803     0.554774 C          1 UNL1 0.000
    40 C       2.666529    -0.672038     0.522252 C          1 UNL1 0.000
    41 C       4.063345    -0.647856     0.556589 C          1 UNL1 0.000
    42 C       4.725212     0.582786     0.632668 C          1 UNL1 0.000
    43 C       4.007316     1.783051     0.676403 C          1 UNL1 0.000
    44 C       2.611056     1.746173     0.636144 C          1 UNL1 0.000
    45 N       6.188340     0.615272     0.661673 N          1 UNL1 0.000
    46 O       6.792827    -0.362547     0.199370 O          1 UNL1 0.000
    47 O       6.730217     1.619440     1.145070 O          1 UNL1 0.000
    48 H       2.150728    -1.629452     0.460624 H          1 UNL1 0.000
    49 H       4.614726    -1.585235     0.524504 H          1 UNL1 0.000
    50 H       4.514804     2.743795     0.732754 H          1 UNL1 0.000
    51 H       2.051873     2.680665     0.659714 H          1 UNL1 0.000
@<TRIPOS>BOND
     1      1      2   2
     2      2      3   1
     3      3      4   2
     4      4      5   1
     5      5      6   2
     6      6      1   1
     7      4      7   1
     8      7      8   1
     9      8      9   2
    10      9     10   1
    11     10     11   2
    12     11     12   1
    13     12     13   2
    14     13      8   1
    15      3     14   1
    16      9     14   1
    17     15     16   2
    18     16     17   1
    19     17     18   2
    20     18     19   1
    21     19     20   2
    22     20     15   1
    23     19     21   1
    24     21     22   2
    25     22     23   1
    26     23     24   2
    27     24     20   1
    28      7     15   1
    29      1     25   1
    30      2     26   1
    31      5     27   1
    32      6     28   1
    33     10     29   1
    34     11     30   1
    35     12     31   1
    36     13     32   1
    37     16     33   1
    38     17     34   1
    39     21     35   1
    40     22     36   1
    41     23     37   1
    42     24     38   1
    43     39     40   2
    44     40     41   1
    45     41     42   2
    46     42     43   1
    47     43     44   2
    48     44     39   1
    49     45     46   2
    50     45     47   1
    51     42     45   1
    52     40     48   1
    53     41     49   1
    54     43     50   1
    55     44     51   1
    56     18     39   1
