# Produced with molli package
@<TRIPOS>MOLECULE
I_6_Q
47 52 0 0 0
SMALL
USER_CHARGES

@<TRIPOS>ATOM
     1 C      -6.028141     4.134718     0.421250 C          1 UNL1 0.000
     2 C      -6.667718     2.899528     0.488428 C          1 UNL1 0.000
     3 C      -5.915447     1.720629     0.497889 C          1 UNL1 0.000
     4 C      -4.512753     1.752969     0.440021 C          1 UNL1 0.000
     5 C      -3.887007     3.010053     0.373834 C          1 UNL1 0.000
     6 C      -4.638338     4.189874     0.364450 C          1 UNL1 0.000
     7 N      -3.782967     0.518879     0.442864 N          1 UNL1 0.000
     8 C      -4.537080    -0.698261     0.509745 C          1 UNL1 0.000
     9 C      -5.939123    -0.633987     0.565979 C          1 UNL1 0.000
    10 C      -6.715704    -1.795535     0.624262 C          1 UNL1 0.000
    11 C      -6.101641    -3.045272     0.626882 C          1 UNL1 0.000
    12 C      -4.713223    -3.131936     0.571104 C          1 UNL1 0.000
    13 C      -3.937275    -1.969340     0.512591 C          1 UNL1 0.000
    14 O      -6.638303     0.551494     0.563527 O          1 UNL1 0.000
    15 C      -2.347620     0.504424     0.375231 C          1 UNL1 0.000
    16 C      -1.631306     0.514010     1.580672 C          1 UNL1 0.000
    17 C      -0.241748     0.523217     1.571265 C          1 UNL1 0.000
    18 C       0.470937     0.524296     0.359547 C          1 UNL1 0.000
    19 C      -0.237269     0.495568    -0.877749 C          1 UNL1 0.000
    20 C      -1.659226     0.489909    -0.869642 C          1 UNL1 0.000
    21 C       0.420408     0.475660    -2.132267 C          1 UNL1 0.000
    22 C      -0.282001     0.457126    -3.337675 C          1 UNL1 0.000
    23 C      -1.666735     0.456477    -3.325137 C          1 UNL1 0.000
    24 C      -2.344048     0.471360    -2.107175 C          1 UNL1 0.000
    25 H      -6.612051     5.051263     0.411910 H          1 UNL1 0.000
    26 H      -7.752278     2.850421     0.531716 H          1 UNL1 0.000
    27 H      -2.804890     3.092863     0.323373 H          1 UNL1 0.000
    28 H      -4.133578     5.151294     0.310082 H          1 UNL1 0.000
    29 H      -7.798930    -1.721658     0.665395 H          1 UNL1 0.000
    30 H      -6.704079    -3.948740     0.670353 H          1 UNL1 0.000
    31 H      -4.228084    -4.105001     0.570290 H          1 UNL1 0.000
    32 H      -2.856841    -2.077300     0.464265 H          1 UNL1 0.000
    33 H      -2.166813     0.516630     2.527317 H          1 UNL1 0.000
    34 H       0.292742     0.526180     2.519928 H          1 UNL1 0.000
    35 H       1.507972     0.460692    -2.186678 H          1 UNL1 0.000
    36 H       0.256980     0.437690    -4.281034 H          1 UNL1 0.000
    37 H      -2.224890     0.439209    -4.257195 H          1 UNL1 0.000
    38 H      -3.432767     0.465071    -2.130949 H          1 UNL1 0.000
    39 C       1.935408     0.578022     0.419021 C          1 UNL1 0.000
    40 N       2.592839    -0.606327     0.332328 N          1 UNL1 0.000
    41 C       3.943373    -0.533935     0.376644 C          1 UNL1 0.000
    42 C       4.621801     0.666368     0.504772 C          1 UNL1 0.000
    43 N       3.981993     1.853005     0.596153 N          1 UNL1 0.000
    44 C       2.628461     1.780166     0.550581 C          1 UNL1 0.000
    45 H       4.471373    -1.477900     0.303825 H          1 UNL1 0.000
    46 H       5.704679     0.705161     0.536631 H          1 UNL1 0.000
    47 H       2.107023     2.729337     0.617769 H          1 UNL1 0.000
@<TRIPOS>BOND
     1      1      2   2
     2      2      3   1
     3      3      4   2
     4      4      5   1
     5      5      6   2
     6      6      1   1
     7      4      7   1
     8      7      8   1
     9      8      9   2
    10      9     10   1
    11     10     11   2
    12     11     12   1
    13     12     13   2
    14     13      8   1
    15      3     14   1
    16      9     14   1
    17     15     16   2
    18     16     17   1
    19     17     18   2
    20     18     19   1
    21     19     20   2
    22     20     15   1
    23     19     21   1
    24     21     22   2
    25     22     23   1
    26     23     24   2
    27     24     20   1
    28      7     15   1
    29      1     25   1
    30      2     26   1
    31      5     27   1
    32      6     28   1
    33     10     29   1
    34     11     30   1
    35     12     31   1
    36     13     32   1
    37     16     33   1
    38     17     34   1
    39     21     35   1
    40     22     36   1
    41     23     37   1
    42     24     38   1
    43     39     40   2
    44     40     41   1
    45     41     42   2
    46     42     43   1
    47     43     44   2
    48     44     39   1
    49     41     45   1
    50     42     46   1
    51     44     47   1
    52     18     39   1
