# Produced with molli package
@<TRIPOS>MOLECULE
I_6_O
48 53 0 0 0
SMALL
USER_CHARGES

@<TRIPOS>ATOM
     1 C      -6.072912     4.186439     0.495002 C          1 UNL1 0.000
     2 C      -6.708304     2.947361     0.500520 C          1 UNL1 0.000
     3 C      -5.950729     1.771883     0.501158 C          1 UNL1 0.000
     4 C      -4.546793     1.811549     0.492466 C          1 UNL1 0.000
     5 C      -3.925274     3.072145     0.489476 C          1 UNL1 0.000
     6 C      -4.682080     4.248683     0.491069 C          1 UNL1 0.000
     7 N      -3.812001     0.581037     0.479775 N          1 UNL1 0.000
     8 C      -4.562253    -0.640673     0.494362 C          1 UNL1 0.000
     9 C      -5.965421    -0.583838     0.506145 C          1 UNL1 0.000
    10 C      -6.737206    -1.750122     0.512283 C          1 UNL1 0.000
    11 C      -6.116989    -2.996971     0.508413 C          1 UNL1 0.000
    12 C      -4.727185    -3.076193     0.497284 C          1 UNL1 0.000
    13 C      -3.956265    -1.909053     0.489088 C          1 UNL1 0.000
    14 O      -6.669865     0.598459     0.505881 O          1 UNL1 0.000
    15 C      -2.376308     0.568904     0.414298 C          1 UNL1 0.000
    16 C      -1.661271     0.522729     1.619612 C          1 UNL1 0.000
    17 C      -0.272022     0.494956     1.609648 C          1 UNL1 0.000
    18 C       0.441782     0.516237     0.398909 C          1 UNL1 0.000
    19 C      -0.265785     0.552585    -0.838699 C          1 UNL1 0.000
    20 C      -1.686942     0.585096    -0.830792 C          1 UNL1 0.000
    21 C       0.392387     0.548604    -2.093338 C          1 UNL1 0.000
    22 C      -0.308550     0.588831    -3.299084 C          1 UNL1 0.000
    23 C      -1.692495     0.630113    -3.286823 C          1 UNL1 0.000
    24 C      -2.370478     0.625434    -2.069003 C          1 UNL1 0.000
    25 H      -6.660863     5.100419     0.493260 H          1 UNL1 0.000
    26 H      -7.793425     2.892359     0.502755 H          1 UNL1 0.000
    27 H      -2.842264     3.159527     0.482658 H          1 UNL1 0.000
    28 H      -4.180684     5.213331     0.486933 H          1 UNL1 0.000
    29 H      -7.821516    -1.682274     0.518272 H          1 UNL1 0.000
    30 H      -6.715477    -3.904026     0.512338 H          1 UNL1 0.000
    31 H      -4.236450    -4.046422     0.492568 H          1 UNL1 0.000
    32 H      -2.874161    -2.011353     0.475283 H          1 UNL1 0.000
    33 H      -2.196503     0.501112     2.565881 H          1 UNL1 0.000
    34 H       0.265816     0.448164     2.555068 H          1 UNL1 0.000
    35 H       1.478672     0.497524    -2.146069 H          1 UNL1 0.000
    36 H       0.230890     0.579895    -4.242207 H          1 UNL1 0.000
    37 H      -2.250165     0.657517    -4.218863 H          1 UNL1 0.000
    38 H      -3.458703     0.648965    -2.093384 H          1 UNL1 0.000
    39 C       1.909530     0.506863     0.463003 C          1 UNL1 0.000
    40 N       2.487377    -0.714175     0.572141 N          1 UNL1 0.000
    41 C       3.836591    -0.758620     0.616077 C          1 UNL1 0.000
    42 C       4.647649     0.362508     0.563234 C          1 UNL1 0.000
    43 C       4.040332     1.608136     0.461776 C          1 UNL1 0.000
    44 C       2.651228     1.685895     0.411806 C          1 UNL1 0.000
    45 H       4.262625    -1.754699     0.695805 H          1 UNL1 0.000
    46 H       5.726909     0.266282     0.600757 H          1 UNL1 0.000
    47 H       4.641798     2.511566     0.419423 H          1 UNL1 0.000
    48 H       2.155548     2.647731     0.328089 H          1 UNL1 0.000
@<TRIPOS>BOND
     1      1      2   2
     2      2      3   1
     3      3      4   2
     4      4      5   1
     5      5      6   2
     6      6      1   1
     7      4      7   1
     8      7      8   1
     9      8      9   2
    10      9     10   1
    11     10     11   2
    12     11     12   1
    13     12     13   2
    14     13      8   1
    15      3     14   1
    16      9     14   1
    17     15     16   2
    18     16     17   1
    19     17     18   2
    20     18     19   1
    21     19     20   2
    22     20     15   1
    23     19     21   1
    24     21     22   2
    25     22     23   1
    26     23     24   2
    27     24     20   1
    28      7     15   1
    29      1     25   1
    30      2     26   1
    31      5     27   1
    32      6     28   1
    33     10     29   1
    34     11     30   1
    35     12     31   1
    36     13     32   1
    37     16     33   1
    38     17     34   1
    39     21     35   1
    40     22     36   1
    41     23     37   1
    42     24     38   1
    43     39     40   2
    44     40     41   1
    45     41     42   2
    46     42     43   1
    47     43     44   2
    48     44     39   1
    49     41     45   1
    50     42     46   1
    51     43     47   1
    52     44     48   1
    53     18     39   1
