# Produced with molli package
@<TRIPOS>MOLECULE
I_6_M
50 55 0 0 0
SMALL
USER_CHARGES

@<TRIPOS>ATOM
     1 C      -6.058608     4.100063     0.528348 C          1 UNL1 0.000
     2 C      -6.688901     2.858873     0.491869 C          1 UNL1 0.000
     3 C      -5.926749     1.686510     0.476846 C          1 UNL1 0.000
     4 C      -4.523253     1.731680     0.489297 C          1 UNL1 0.000
     5 C      -3.906971     2.994491     0.526660 C          1 UNL1 0.000
     6 C      -4.668303     4.167662     0.548404 C          1 UNL1 0.000
     7 N      -3.782609     0.504425     0.458963 N          1 UNL1 0.000
     8 C      -4.527731    -0.720305     0.456837 C          1 UNL1 0.000
     9 C      -5.931499    -0.668839     0.451699 C          1 UNL1 0.000
    10 C      -6.699478    -1.837550     0.446397 C          1 UNL1 0.000
    11 C      -6.075006    -3.082025     0.449319 C          1 UNL1 0.000
    12 C      -4.684723    -3.156221     0.454128 C          1 UNL1 0.000
    13 C      -3.917337    -1.986290     0.455926 C          1 UNL1 0.000
    14 O      -6.640666     0.510575     0.445496 O          1 UNL1 0.000
    15 C      -2.346791     0.505628     0.396141 C          1 UNL1 0.000
    16 C      -1.633132     0.489226     1.603004 C          1 UNL1 0.000
    17 C      -0.243579     0.499451     1.597090 C          1 UNL1 0.000
    18 C       0.471539     0.527487     0.388023 C          1 UNL1 0.000
    19 C      -0.233681     0.549871    -0.851614 C          1 UNL1 0.000
    20 C      -1.655293     0.534915    -0.847299 C          1 UNL1 0.000
    21 C       0.427328     0.586483    -2.104091 C          1 UNL1 0.000
    22 C      -0.271600     0.604106    -3.311593 C          1 UNL1 0.000
    23 C      -1.656091     0.583814    -3.303086 C          1 UNL1 0.000
    24 C      -2.336613     0.550185    -2.087153 C          1 UNL1 0.000
    25 H      -6.650076     5.011694     0.541153 H          1 UNL1 0.000
    26 H      -7.773703     2.800096     0.475026 H          1 UNL1 0.000
    27 H      -2.824437     3.087142     0.538961 H          1 UNL1 0.000
    28 H      -4.170703     5.133834     0.578894 H          1 UNL1 0.000
    29 H      -7.784116    -1.773164     0.439967 H          1 UNL1 0.000
    30 H      -6.670981    -3.990875     0.446723 H          1 UNL1 0.000
    31 H      -4.192148    -4.125497     0.455250 H          1 UNL1 0.000
    32 H      -2.835189    -2.083923     0.456076 H          1 UNL1 0.000
    33 H      -2.170755     0.469180     2.548150 H          1 UNL1 0.000
    34 H       0.288593     0.483694     2.546648 H          1 UNL1 0.000
    35 H       1.514414     0.603522    -2.154807 H          1 UNL1 0.000
    36 H       0.269420     0.633086    -4.253590 H          1 UNL1 0.000
    37 H      -2.212019     0.594825    -4.236670 H          1 UNL1 0.000
    38 H      -3.425061     0.535348    -2.114626 H          1 UNL1 0.000
    39 C       1.942308     0.518389     0.456922 C          1 UNL1 0.000
    40 C       2.667608     1.718192     0.517059 C          1 UNL1 0.000
    41 C       4.065061     1.705203     0.571809 C          1 UNL1 0.000
    42 C       4.755895     0.489599     0.570195 C          1 UNL1 0.000
    43 C       4.043304    -0.711679     0.516271 C          1 UNL1 0.000
    44 C       2.646596    -0.695756     0.461340 C          1 UNL1 0.000
    45 C       6.188698     0.474092     0.620920 C          1 UNL1 0.000
    46 N       7.348365     0.460025     0.660428 N          1 UNL1 0.000
    47 H       2.142406     2.672041     0.514285 H          1 UNL1 0.000
    48 H       4.606191     2.648802     0.613102 H          1 UNL1 0.000
    49 H       4.566158    -1.666338     0.514064 H          1 UNL1 0.000
    50 H       2.103631    -1.638554     0.414835 H          1 UNL1 0.000
@<TRIPOS>BOND
     1      1      2   2
     2      2      3   1
     3      3      4   2
     4      4      5   1
     5      5      6   2
     6      6      1   1
     7      4      7   1
     8      7      8   1
     9      8      9   2
    10      9     10   1
    11     10     11   2
    12     11     12   1
    13     12     13   2
    14     13      8   1
    15      3     14   1
    16      9     14   1
    17     15     16   2
    18     16     17   1
    19     17     18   2
    20     18     19   1
    21     19     20   2
    22     20     15   1
    23     19     21   1
    24     21     22   2
    25     22     23   1
    26     23     24   2
    27     24     20   1
    28      7     15   1
    29      1     25   1
    30      2     26   1
    31      5     27   1
    32      6     28   1
    33     10     29   1
    34     11     30   1
    35     12     31   1
    36     13     32   1
    37     16     33   1
    38     17     34   1
    39     21     35   1
    40     22     36   1
    41     23     37   1
    42     24     38   1
    43     39     40   2
    44     40     41   1
    45     41     42   2
    46     42     43   1
    47     43     44   2
    48     44     39   1
    49     45     46   3
    50     42     45   1
    51     40     47   1
    52     41     48   1
    53     43     49   1
    54     44     50   1
    55     18     39   1
