# Produced with molli package
@<TRIPOS>MOLECULE
I_6_T
52 57 0 0 0
SMALL
USER_CHARGES

@<TRIPOS>ATOM
     1 C      -6.113000     4.136985     0.466226 C          1 UNL1 0.000
     2 C      -6.735543     2.891817     0.499251 C          1 UNL1 0.000
     3 C      -5.966030     1.724110     0.507325 C          1 UNL1 0.000
     4 C      -4.562743     1.777725     0.483704 C          1 UNL1 0.000
     5 C      -3.954268     3.044425     0.454462 C          1 UNL1 0.000
     6 C      -4.723055     4.213119     0.444522 C          1 UNL1 0.000
     7 N      -3.815456     0.554356     0.477942 N          1 UNL1 0.000
     8 C      -4.553740    -0.674545     0.486126 C          1 UNL1 0.000
     9 C      -5.957228    -0.631540     0.509804 C          1 UNL1 0.000
    10 C      -6.717640    -1.805214     0.504010 C          1 UNL1 0.000
    11 C      -6.085551    -3.045696     0.473489 C          1 UNL1 0.000
    12 C      -4.695154    -3.111291     0.451434 C          1 UNL1 0.000
    13 C      -3.935601    -1.936714     0.458385 C          1 UNL1 0.000
    14 O      -6.673060     0.543617     0.532474 O          1 UNL1 0.000
    15 C      -2.379926     0.558054     0.409058 C          1 UNL1 0.000
    16 C      -1.661119     0.542726     1.613231 C          1 UNL1 0.000
    17 C      -0.271429     0.538071     1.601336 C          1 UNL1 0.000
    18 C       0.438250     0.549175     0.388978 C          1 UNL1 0.000
    19 C      -0.272908     0.567745    -0.847600 C          1 UNL1 0.000
    20 C      -1.693781     0.571439    -0.837486 C          1 UNL1 0.000
    21 C       0.383192     0.583373    -2.103024 C          1 UNL1 0.000
    22 C      -0.320485     0.599980    -3.307775 C          1 UNL1 0.000
    23 C      -1.704919     0.601822    -3.293518 C          1 UNL1 0.000
    24 C      -2.380569     0.587582    -2.074565 C          1 UNL1 0.000
    25 H      -6.710121     5.044945     0.455558 H          1 UNL1 0.000
    26 H      -7.819948     2.826109     0.514693 H          1 UNL1 0.000
    27 H      -2.872287     3.143155     0.431923 H          1 UNL1 0.000
    28 H      -4.231408     5.182427     0.416436 H          1 UNL1 0.000
    29 H      -7.802508    -1.747887     0.519198 H          1 UNL1 0.000
    30 H      -6.675601    -3.958264     0.464765 H          1 UNL1 0.000
    31 H      -4.195880    -4.076731     0.425235 H          1 UNL1 0.000
    32 H      -2.852943    -2.027423     0.434872 H          1 UNL1 0.000
    33 H      -2.194283     0.532270     2.560958 H          1 UNL1 0.000
    34 H       0.266920     0.523598     2.547474 H          1 UNL1 0.000
    35 H       1.470585     0.583306    -2.156488 H          1 UNL1 0.000
    36 H       0.217951     0.611412    -4.251461 H          1 UNL1 0.000
    37 H      -2.264651     0.614665    -4.224638 H          1 UNL1 0.000
    38 H      -3.468999     0.589666    -2.097003 H          1 UNL1 0.000
    39 C       1.909382     0.540176     0.447537 C          1 UNL1 0.000
    40 C       2.629903     1.739778     0.534558 C          1 UNL1 0.000
    41 C       4.027343     1.733744     0.561400 C          1 UNL1 0.000
    42 C       4.732322     0.527322     0.493892 C          1 UNL1 0.000
    43 C       4.018126    -0.674369     0.432705 C          1 UNL1 0.000
    44 C       2.620828    -0.667441     0.406834 C          1 UNL1 0.000
    45 C       6.231522     0.513323     0.538478 C          1 UNL1 0.000
    46 H       2.101138     2.690003     0.572858 H          1 UNL1 0.000
    47 H       4.559863     2.679741     0.628199 H          1 UNL1 0.000
    48 H       4.545130    -1.625272     0.398334 H          1 UNL1 0.000
    49 H       2.084944    -1.612480     0.345511 H          1 UNL1 0.000
    50 H       6.629797    -0.251465    -0.136697 H          1 UNL1 0.000
    51 H       6.574787     0.305387     1.556428 H          1 UNL1 0.000
    52 H       6.645302     1.475529     0.218742 H          1 UNL1 0.000
@<TRIPOS>BOND
     1      1      2   2
     2      2      3   1
     3      3      4   2
     4      4      5   1
     5      5      6   2
     6      6      1   1
     7      4      7   1
     8      7      8   1
     9      8      9   2
    10      9     10   1
    11     10     11   2
    12     11     12   1
    13     12     13   2
    14     13      8   1
    15      3     14   1
    16      9     14   1
    17     15     16   2
    18     16     17   1
    19     17     18   2
    20     18     19   1
    21     19     20   2
    22     20     15   1
    23     19     21   1
    24     21     22   2
    25     22     23   1
    26     23     24   2
    27     24     20   1
    28      7     15   1
    29      1     25   1
    30      2     26   1
    31      5     27   1
    32      6     28   1
    33     10     29   1
    34     11     30   1
    35     12     31   1
    36     13     32   1
    37     16     33   1
    38     17     34   1
    39     21     35   1
    40     22     36   1
    41     23     37   1
    42     24     38   1
    43     39     40   2
    44     40     41   1
    45     41     42   2
    46     42     43   1
    47     43     44   2
    48     44     39   1
    49     42     45   1
    50     40     46   1
    51     41     47   1
    52     43     48   1
    53     44     49   1
    54     45     50   1
    55     45     51   1
    56     45     52   1
    57     18     39   1
