# Produced with molli package
@<TRIPOS>MOLECULE
I_6_R
50 55 0 0 0
SMALL
USER_CHARGES

@<TRIPOS>ATOM
     1 C      -6.071001     4.084658     0.580404 C          1 UNL1 0.000
     2 C      -6.699903     2.843026     0.625784 C          1 UNL1 0.000
     3 C      -5.937337     1.670769     0.614636 C          1 UNL1 0.000
     4 C      -4.534857     1.716262     0.557510 C          1 UNL1 0.000
     5 C      -3.919973     2.979586     0.512304 C          1 UNL1 0.000
     6 C      -4.681707     4.152733     0.524087 C          1 UNL1 0.000
     7 N      -3.794513     0.488443     0.538565 N          1 UNL1 0.000
     8 C      -4.538211    -0.735963     0.585600 C          1 UNL1 0.000
     9 C      -5.940716    -0.684796     0.640918 C          1 UNL1 0.000
    10 C      -6.707062    -1.853964     0.677916 C          1 UNL1 0.000
    11 C      -6.082091    -3.098198     0.661128 C          1 UNL1 0.000
    12 C      -4.692852    -3.171920     0.608148 C          1 UNL1 0.000
    13 C      -3.927245    -2.001676     0.570688 C          1 UNL1 0.000
    14 O      -6.650111     0.494353     0.657864 O          1 UNL1 0.000
    15 C      -2.360093     0.487971     0.451470 C          1 UNL1 0.000
    16 C      -1.627197     0.524318     1.646137 C          1 UNL1 0.000
    17 C      -0.238006     0.537743     1.616562 C          1 UNL1 0.000
    18 C       0.458692     0.510418     0.395962 C          1 UNL1 0.000
    19 C      -0.267805     0.489784    -0.832536 C          1 UNL1 0.000
    20 C      -1.689247     0.470405    -0.803140 C          1 UNL1 0.000
    21 C       0.368533     0.502175    -2.099163 C          1 UNL1 0.000
    22 C      -0.352289     0.476387    -3.293585 C          1 UNL1 0.000
    23 C      -1.735718     0.442826    -3.258865 C          1 UNL1 0.000
    24 C      -2.393093     0.442874    -2.030105 C          1 UNL1 0.000
    25 H      -6.662526     4.996311     0.587538 H          1 UNL1 0.000
    26 H      -7.783970     2.783938     0.667978 H          1 UNL1 0.000
    27 H      -2.838261     3.073354     0.463023 H          1 UNL1 0.000
    28 H      -4.184683     5.119073     0.486873 H          1 UNL1 0.000
    29 H      -7.791008    -1.790124     0.717929 H          1 UNL1 0.000
    30 H      -6.677067    -4.007274     0.688234 H          1 UNL1 0.000
    31 H      -4.199973    -4.140869     0.593634 H          1 UNL1 0.000
    32 H      -2.846085    -2.098458     0.525543 H          1 UNL1 0.000
    33 H      -2.148999     0.548602     2.600046 H          1 UNL1 0.000
    34 H       0.311566     0.575092     2.555748 H          1 UNL1 0.000
    35 H       1.452960     0.549910    -2.174540 H          1 UNL1 0.000
    36 H       0.170646     0.490646    -4.246097 H          1 UNL1 0.000
    37 H      -2.309032     0.426518    -4.181775 H          1 UNL1 0.000
    38 H      -3.481922     0.427347    -2.037032 H          1 UNL1 0.000
    39 C       1.927693     0.498891     0.440920 C          1 UNL1 0.000
    40 N       2.519168     1.687002     0.728097 N          1 UNL1 0.000
    41 C       3.874863     1.727504     0.748045 C          1 UNL1 0.000
    42 C       4.666177     0.618815     0.496831 C          1 UNL1 0.000
    43 C       4.054933    -0.604522     0.221267 C          1 UNL1 0.000
    44 C       2.661705    -0.664093     0.197739 C          1 UNL1 0.000
    45 N       6.113769     0.746148     0.513225 N          1 UNL1 0.000
    46 O       6.773657    -0.165564    -0.005945 O          1 UNL1 0.000
    47 O       6.597365     1.755444     1.041906 O          1 UNL1 0.000
    48 H       4.292821     2.706748     0.968419 H          1 UNL1 0.000
    49 H       4.637550    -1.501193     0.024147 H          1 UNL1 0.000
    50 H       2.154705    -1.600749    -0.017506 H          1 UNL1 0.000
@<TRIPOS>BOND
     1      1      2   2
     2      2      3   1
     3      3      4   2
     4      4      5   1
     5      5      6   2
     6      6      1   1
     7      4      7   1
     8      7      8   1
     9      8      9   2
    10      9     10   1
    11     10     11   2
    12     11     12   1
    13     12     13   2
    14     13      8   1
    15      3     14   1
    16      9     14   1
    17     15     16   2
    18     16     17   1
    19     17     18   2
    20     18     19   1
    21     19     20   2
    22     20     15   1
    23     19     21   1
    24     21     22   2
    25     22     23   1
    26     23     24   2
    27     24     20   1
    28      7     15   1
    29      1     25   1
    30      2     26   1
    31      5     27   1
    32      6     28   1
    33     10     29   1
    34     11     30   1
    35     12     31   1
    36     13     32   1
    37     16     33   1
    38     17     34   1
    39     21     35   1
    40     22     36   1
    41     23     37   1
    42     24     38   1
    43     39     40   2
    44     40     41   1
    45     41     42   2
    46     42     43   1
    47     43     44   2
    48     44     39   1
    49     45     46   2
    50     45     47   1
    51     42     45   1
    52     41     48   1
    53     43     49   1
    54     44     50   1
    55     18     39   1
