# Produced with molli package
@<TRIPOS>MOLECULE
I_7_T
50 54 0 0 0
SMALL
USER_CHARGES

@<TRIPOS>ATOM
     1 C      -8.248773     4.098594     1.864553 C          1 UNL1 0.000
     2 C      -8.894928     2.865688     1.901775 C          1 UNL1 0.000
     3 C      -8.148159     1.683150     1.898389 C          1 UNL1 0.000
     4 C      -6.744276     1.708952     1.856971 C          1 UNL1 0.000
     5 C      -6.112101     2.963959     1.819883 C          1 UNL1 0.000
     6 C      -6.858025     4.147615     1.824109 C          1 UNL1 0.000
     7 N      -6.020956     0.472072     1.851758 N          1 UNL1 0.000
     8 C      -6.782387    -0.741557     1.893575 C          1 UNL1 0.000
     9 C      -8.184499    -0.671771     1.932675 C          1 UNL1 0.000
    10 C      -8.966634    -1.830654     1.971526 C          1 UNL1 0.000
    11 C      -8.358245    -3.083307     1.974303 C          1 UNL1 0.000
    12 C      -6.969720    -3.175841     1.939499 C          1 UNL1 0.000
    13 C      -6.188600    -2.016015     1.899778 C          1 UNL1 0.000
    14 O      -8.878019     0.516868     1.934733 O          1 UNL1 0.000
    15 C      -4.596777     0.446643     1.772170 C          1 UNL1 0.000
    16 C      -3.819921     0.476615     2.936647 C          1 UNL1 0.000
    17 C      -2.425164     0.429817     2.855812 C          1 UNL1 0.000
    18 C      -1.783690     0.364745     1.611663 C          1 UNL1 0.000
    19 C      -2.563895     0.326176     0.448757 C          1 UNL1 0.000
    20 C      -3.958745     0.372154     0.527470 C          1 UNL1 0.000
    21 C      -0.318193     0.268929     1.573847 C          1 UNL1 0.000
    22 C       0.449998     0.850537     0.638577 C          1 UNL1 0.000
    23 H      -8.828233     5.017979     1.866684 H          1 UNL1 0.000
    24 H      -9.980080     2.820890     1.932672 H          1 UNL1 0.000
    25 H      -5.028667     3.041549     1.787081 H          1 UNL1 0.000
    26 H      -6.348063     5.107379     1.795182 H          1 UNL1 0.000
    27 H     -10.049932    -1.752213     1.999489 H          1 UNL1 0.000
    28 H      -8.965243    -3.984237     2.004236 H          1 UNL1 0.000
    29 H      -6.488763    -4.150869     1.943190 H          1 UNL1 0.000
    30 H      -5.107946    -2.127839     1.874978 H          1 UNL1 0.000
    31 H      -4.304579     0.529190     3.908375 H          1 UNL1 0.000
    32 H      -1.844330     0.449728     3.775392 H          1 UNL1 0.000
    33 H      -2.098183     0.243787    -0.530197 H          1 UNL1 0.000
    34 H      -4.552996     0.339187    -0.382392 H          1 UNL1 0.000
    35 H       0.136420    -0.292025     2.387560 H          1 UNL1 0.000
    36 H       0.020027     1.462117    -0.149916 H          1 UNL1 0.000
    37 C       1.913998     0.747635     0.639976 C          1 UNL1 0.000
    38 C       2.565821    -0.482107     0.788364 C          1 UNL1 0.000
    39 C       3.961946    -0.552716     0.772932 C          1 UNL1 0.000
    40 C       4.728371     0.603283     0.591041 C          1 UNL1 0.000
    41 C       4.076951     1.832379     0.438405 C          1 UNL1 0.000
    42 C       2.680739     1.901947     0.451161 C          1 UNL1 0.000
    43 C       6.226669     0.540380     0.614392 C          1 UNL1 0.000
    44 H       1.993278    -1.398184     0.912820 H          1 UNL1 0.000
    45 H       4.444657    -1.518847     0.901143 H          1 UNL1 0.000
    46 H       4.652852     2.746076     0.309814 H          1 UNL1 0.000
    47 H       2.198376     2.868994     0.329115 H          1 UNL1 0.000
    48 H       6.597125     0.819746     1.605597 H          1 UNL1 0.000
    49 H       6.652892     1.219832    -0.131060 H          1 UNL1 0.000
    50 H       6.584342    -0.467435     0.378877 H          1 UNL1 0.000
@<TRIPOS>BOND
     1      1      2   2
     2      2      3   1
     3      3      4   2
     4      4      5   1
     5      5      6   2
     6      6      1   1
     7      4      7   1
     8      7      8   1
     9      8      9   2
    10      9     10   1
    11     10     11   2
    12     11     12   1
    13     12     13   2
    14     13      8   1
    15      3     14   1
    16      9     14   1
    17     15     16   2
    18     16     17   1
    19     17     18   2
    20     18     19   1
    21     19     20   2
    22     20     15   1
    23     18     21   1
    24     21     22   2
    25      7     15   1
    26      1     23   1
    27      2     24   1
    28      5     25   1
    29      6     26   1
    30     10     27   1
    31     11     28   1
    32     12     29   1
    33     13     30   1
    34     16     31   1
    35     17     32   1
    36     19     33   1
    37     20     34   1
    38     21     35   1
    39     22     36   1
    40     37     38   2
    41     38     39   1
    42     39     40   2
    43     40     41   1
    44     41     42   2
    45     42     37   1
    46     40     43   1
    47     38     44   1
    48     39     45   1
    49     41     46   1
    50     42     47   1
    51     43     48   1
    52     43     49   1
    53     43     50   1
    54     22     37   1
