# Produced with molli package
@<TRIPOS>MOLECULE
I_7_S
52 56 0 0 0
SMALL
USER_CHARGES

@<TRIPOS>ATOM
     1 C      -8.309401     4.049080     1.944722 C          1 UNL1 0.000
     2 C      -8.932097     2.803794     1.944902 C          1 UNL1 0.000
     3 C      -8.162464     1.635941     1.939172 C          1 UNL1 0.000
     4 C      -6.758565     1.688483     1.934379 C          1 UNL1 0.000
     5 C      -6.150330     2.955768     1.938545 C          1 UNL1 0.000
     6 C      -6.919240     4.124907     1.941945 C          1 UNL1 0.000
     7 N      -6.011307     0.465302     1.923442 N          1 UNL1 0.000
     8 C      -6.751626    -0.762117     1.890993 C          1 UNL1 0.000
     9 C      -8.155397    -0.718586     1.896052 C          1 UNL1 0.000
    10 C      -8.917060    -1.890981     1.855832 C          1 UNL1 0.000
    11 C      -8.286223    -3.131461     1.809003 C          1 UNL1 0.000
    12 C      -6.895807    -3.198375     1.805401 C          1 UNL1 0.000
    13 C      -6.135161    -2.024997     1.847039 C          1 UNL1 0.000
    14 O      -8.870822     0.456132     1.934159 O          1 UNL1 0.000
    15 C      -4.586796     0.467592     1.846111 C          1 UNL1 0.000
    16 C      -3.806920     0.412366     3.006228 C          1 UNL1 0.000
    17 C      -2.409170     0.395496     2.919624 C          1 UNL1 0.000
    18 C      -1.760499     0.435217     1.675164 C          1 UNL1 0.000
    19 C      -2.552099     0.488784     0.518881 C          1 UNL1 0.000
    20 C      -3.948281     0.508189     0.602176 C          1 UNL1 0.000
    21 C      -0.284486     0.399979     1.644709 C          1 UNL1 0.000
    22 C       0.475999     0.565635     0.550689 C          1 UNL1 0.000
    23 H      -8.906594     4.957098     1.946591 H          1 UNL1 0.000
    24 H     -10.016655     2.737803     1.946991 H          1 UNL1 0.000
    25 H      -5.068181     3.054698     1.937967 H          1 UNL1 0.000
    26 H      -6.427761     5.094732     1.941988 H          1 UNL1 0.000
    27 H     -10.002008    -1.832265     1.857869 H          1 UNL1 0.000
    28 H      -8.877358    -4.042724     1.774584 H          1 UNL1 0.000
    29 H      -6.397527    -4.163952     1.768704 H          1 UNL1 0.000
    30 H      -5.052453    -2.117132     1.841758 H          1 UNL1 0.000
    31 H      -4.289594     0.378214     3.979948 H          1 UNL1 0.000
    32 H      -1.834081     0.350711     3.842235 H          1 UNL1 0.000
    33 H      -2.106745     0.510690    -0.471011 H          1 UNL1 0.000
    34 H      -4.542498     0.548079    -0.307649 H          1 UNL1 0.000
    35 H       0.202065     0.237392     2.605412 H          1 UNL1 0.000
    36 H       0.062485     0.751383    -0.434606 H          1 UNL1 0.000
    37 C       1.937928     0.538604     0.599623 C          1 UNL1 0.000
    38 C       2.651327     1.736956     0.651145 C          1 UNL1 0.000
    39 C       4.048980     1.722550     0.641270 C          1 UNL1 0.000
    40 C       4.755868     0.511553     0.577580 C          1 UNL1 0.000
    41 C       4.035495    -0.688061     0.533695 C          1 UNL1 0.000
    42 C       2.633575    -0.672721     0.551542 C          1 UNL1 0.000
    43 C       6.250447     0.582296     0.543119 C          1 UNL1 0.000
    44 C       7.088831    -0.669618     0.517450 C          1 UNL1 0.000
    45 O       6.799413     1.685847     0.512152 O          1 UNL1 0.000
    46 H       2.128163     2.690056     0.688196 H          1 UNL1 0.000
    47 H       4.584949     2.670207     0.672654 H          1 UNL1 0.000
    48 H       4.524171    -1.654083     0.471128 H          1 UNL1 0.000
    49 H       2.088723    -1.613960     0.508400 H          1 UNL1 0.000
    50 H       7.498868    -0.803676    -0.487265 H          1 UNL1 0.000
    51 H       6.547499    -1.567997     0.808387 H          1 UNL1 0.000
    52 H       7.909517    -0.550444     1.232045 H          1 UNL1 0.000
@<TRIPOS>BOND
     1      1      2   2
     2      2      3   1
     3      3      4   2
     4      4      5   1
     5      5      6   2
     6      6      1   1
     7      4      7   1
     8      7      8   1
     9      8      9   2
    10      9     10   1
    11     10     11   2
    12     11     12   1
    13     12     13   2
    14     13      8   1
    15      3     14   1
    16      9     14   1
    17     15     16   2
    18     16     17   1
    19     17     18   2
    20     18     19   1
    21     19     20   2
    22     20     15   1
    23     18     21   1
    24     21     22   2
    25      7     15   1
    26      1     23   1
    27      2     24   1
    28      5     25   1
    29      6     26   1
    30     10     27   1
    31     11     28   1
    32     12     29   1
    33     13     30   1
    34     16     31   1
    35     17     32   1
    36     19     33   1
    37     20     34   1
    38     21     35   1
    39     22     36   1
    40     37     38   2
    41     38     39   1
    42     39     40   2
    43     40     41   1
    44     41     42   2
    45     42     37   1
    46     40     43   1
    47     43     44   1
    48     43     45   2
    49     38     46   1
    50     39     47   1
    51     41     48   1
    52     42     49   1
    53     44     50   1
    54     44     51   1
    55     44     52   1
    56     22     37   1
