# Produced with molli package
@<TRIPOS>MOLECULE
I_7_L
51 56 0 0 0
SMALL
USER_CHARGES

@<TRIPOS>ATOM
     1 C      -8.288737     4.171107     1.783466 C          1 UNL1 0.000
     2 C      -8.915509     2.927653     1.800322 C          1 UNL1 0.000
     3 C      -8.150371     1.756795     1.792486 C          1 UNL1 0.000
     4 C      -6.747230     1.805037     1.763327 C          1 UNL1 0.000
     5 C      -6.134809     3.070782     1.752029 C          1 UNL1 0.000
     6 C      -6.898802     4.242572     1.761034 C          1 UNL1 0.000
     7 N      -6.003261     0.579516     1.754175 N          1 UNL1 0.000
     8 C      -6.744901    -0.646071     1.784514 C          1 UNL1 0.000
     9 C      -8.148569    -0.598419     1.816578 C          1 UNL1 0.000
    10 C      -8.913284    -1.769095     1.844532 C          1 UNL1 0.000
    11 C      -8.285818    -3.012062     1.839927 C          1 UNL1 0.000
    12 C      -6.895842    -3.082881     1.805572 C          1 UNL1 0.000
    13 C      -6.131912    -1.911005     1.776767 C          1 UNL1 0.000
    14 O      -8.861384     0.578918     1.817351 O          1 UNL1 0.000
    15 C      -4.577790     0.584041     1.689775 C          1 UNL1 0.000
    16 C      -3.813639     0.500512     2.860467 C          1 UNL1 0.000
    17 C      -2.417837     0.543438     2.797053 C          1 UNL1 0.000
    18 C      -1.763584     0.656851     1.563629 C          1 UNL1 0.000
    19 C      -2.529877     0.741328     0.393916 C          1 UNL1 0.000
    20 C      -3.925554     0.700812     0.455514 C          1 UNL1 0.000
    21 C      -0.299442     0.764185     1.541610 C          1 UNL1 0.000
    22 C       0.479857     0.177573     0.619250 C          1 UNL1 0.000
    23 H      -8.882481     5.081279     1.790077 H          1 UNL1 0.000
    24 H     -10.000037     2.865697     1.820767 H          1 UNL1 0.000
    25 H      -5.052414     3.166733     1.739011 H          1 UNL1 0.000
    26 H      -6.403259     5.210242     1.751464 H          1 UNL1 0.000
    27 H      -9.997771    -1.707069     1.868386 H          1 UNL1 0.000
    28 H      -8.879233    -3.922246     1.861230 H          1 UNL1 0.000
    29 H      -6.400512    -4.050684     1.799852 H          1 UNL1 0.000
    30 H      -5.049805    -2.005849     1.746753 H          1 UNL1 0.000
    31 H      -4.309297     0.415441     3.824315 H          1 UNL1 0.000
    32 H      -1.846358     0.487107     3.720900 H          1 UNL1 0.000
    33 H      -2.051472     0.860578    -0.575194 H          1 UNL1 0.000
    34 H      -4.509371     0.774787    -0.458681 H          1 UNL1 0.000
    35 H       0.142219     1.346739     2.347474 H          1 UNL1 0.000
    36 H       0.064636    -0.451092    -0.163618 H          1 UNL1 0.000
    37 C       1.941106     0.315531     0.623847 C          1 UNL1 0.000
    38 C       2.735266    -0.833244     0.554626 C          1 UNL1 0.000
    39 C       4.133348    -0.755395     0.538843 C          1 UNL1 0.000
    40 C       4.710754     0.518059     0.580572 C          1 UNL1 0.000
    41 C       3.951864     1.686565     0.634261 C          1 UNL1 0.000
    42 C       2.546742     1.583130     0.653583 C          1 UNL1 0.000
    43 N       6.034869     0.895745     0.576122 N          1 UNL1 0.000
    44 C       6.138074     2.261102     0.617629 C          1 UNL1 0.000
    45 C       4.863314     2.778332     0.653077 C          1 UNL1 0.000
    46 H       2.267724    -1.815653     0.523593 H          1 UNL1 0.000
    47 H       4.739200    -1.654302     0.494847 H          1 UNL1 0.000
    48 H       1.943487     2.485878     0.682250 H          1 UNL1 0.000
    49 H       6.813678     0.252725     0.543661 H          1 UNL1 0.000
    50 H       7.105480     2.744832     0.617898 H          1 UNL1 0.000
    51 H       4.609460     3.829575     0.689235 H          1 UNL1 0.000
@<TRIPOS>BOND
     1      1      2   2
     2      2      3   1
     3      3      4   2
     4      4      5   1
     5      5      6   2
     6      6      1   1
     7      4      7   1
     8      7      8   1
     9      8      9   2
    10      9     10   1
    11     10     11   2
    12     11     12   1
    13     12     13   2
    14     13      8   1
    15      3     14   1
    16      9     14   1
    17     15     16   2
    18     16     17   1
    19     17     18   2
    20     18     19   1
    21     19     20   2
    22     20     15   1
    23     18     21   1
    24     21     22   2
    25      7     15   1
    26      1     23   1
    27      2     24   1
    28      5     25   1
    29      6     26   1
    30     10     27   1
    31     11     28   1
    32     12     29   1
    33     13     30   1
    34     16     31   1
    35     17     32   1
    36     19     33   1
    37     20     34   1
    38     21     35   1
    39     22     36   1
    40     37     38   2
    41     38     39   1
    42     39     40   2
    43     40     41   1
    44     41     42   2
    45     42     37   1
    46     40     43   1
    47     43     44   1
    48     44     45   2
    49     45     41   1
    50     38     46   1
    51     39     47   1
    52     42     48   1
    53     43     49   1
    54     44     50   1
    55     45     51   1
    56     22     37   1
