# Produced with molli package
@<TRIPOS>MOLECULE
I_7_K
49 53 0 0 0
SMALL
USER_CHARGES

@<TRIPOS>ATOM
     1 C      -8.376240     4.068764     1.967079 C          1 UNL1 0.000
     2 C      -8.993031     2.820243     1.969824 C          1 UNL1 0.000
     3 C      -8.218411     1.655839     1.951909 C          1 UNL1 0.000
     4 C      -6.815556     1.715806     1.927415 C          1 UNL1 0.000
     5 C      -6.213235     2.986341     1.928242 C          1 UNL1 0.000
     6 C      -6.986832     4.151712     1.947620 C          1 UNL1 0.000
     7 N      -6.061794     0.496637     1.906705 N          1 UNL1 0.000
     8 C      -6.793638    -0.735237     1.920381 C          1 UNL1 0.000
     9 C      -8.197718    -0.699403     1.946465 C          1 UNL1 0.000
    10 C      -8.952762    -1.876595     1.956880 C          1 UNL1 0.000
    11 C      -8.314924    -3.114237     1.942735 C          1 UNL1 0.000
    12 C      -6.924202    -3.173292     1.917633 C          1 UNL1 0.000
    13 C      -6.169934    -1.994926     1.905696 C          1 UNL1 0.000
    14 O      -8.919952     0.472047     1.959101 O          1 UNL1 0.000
    15 C      -4.637602     0.512239     1.827224 C          1 UNL1 0.000
    16 C      -3.859969     0.475373     2.990421 C          1 UNL1 0.000
    17 C      -2.464655     0.516281     2.908314 C          1 UNL1 0.000
    18 C      -1.821281     0.584599     1.664425 C          1 UNL1 0.000
    19 C      -2.604281     0.629004     0.503221 C          1 UNL1 0.000
    20 C      -3.999535     0.586911     0.582942 C          1 UNL1 0.000
    21 C      -0.353440     0.676737     1.632072 C          1 UNL1 0.000
    22 C       0.417050     0.208033     0.637248 C          1 UNL1 0.000
    23 H      -8.977504     4.973944     1.981312 H          1 UNL1 0.000
    24 H     -10.077115     2.749347     1.986207 H          1 UNL1 0.000
    25 H      -5.131708     3.090910     1.915987 H          1 UNL1 0.000
    26 H      -6.499548     5.123614     1.947883 H          1 UNL1 0.000
    27 H     -10.037878    -1.823924     1.975164 H          1 UNL1 0.000
    28 H      -8.900932    -4.029467     1.950744 H          1 UNL1 0.000
    29 H      -6.421013    -4.137002     1.906696 H          1 UNL1 0.000
    30 H      -5.086896    -2.080556     1.884997 H          1 UNL1 0.000
    31 H      -4.344227     0.423706     3.962517 H          1 UNL1 0.000
    32 H      -1.886000     0.491902     3.829250 H          1 UNL1 0.000
    33 H      -2.144328     0.713592    -0.477909 H          1 UNL1 0.000
    34 H      -4.594454     0.624340    -0.326481 H          1 UNL1 0.000
    35 H       0.104437     1.139273     2.504446 H          1 UNL1 0.000
    36 H      -0.005879    -0.306127    -0.221470 H          1 UNL1 0.000
    37 C       1.879671     0.311044     0.661150 C          1 UNL1 0.000
    38 C       2.523289     1.541638     0.856259 C          1 UNL1 0.000
    39 C       3.919152     1.619887     0.860878 C          1 UNL1 0.000
    40 C       4.673490     0.457156     0.661310 C          1 UNL1 0.000
    41 C       4.043633    -0.775499     0.451878 C          1 UNL1 0.000
    42 C       2.647391    -0.841539     0.447740 C          1 UNL1 0.000
    43 N       6.137913     0.532264     0.669837 N          1 UNL1 0.000
    44 O       6.659048     1.563734     1.115074 O          1 UNL1 0.000
    45 O       6.766215    -0.442779     0.231067 O          1 UNL1 0.000
    46 H       1.941102     2.450501     0.998200 H          1 UNL1 0.000
    47 H       4.397052     2.585211     1.014246 H          1 UNL1 0.000
    48 H       4.618893    -1.685819     0.295966 H          1 UNL1 0.000
    49 H       2.161602    -1.802834     0.289392 H          1 UNL1 0.000
@<TRIPOS>BOND
     1      1      2   2
     2      2      3   1
     3      3      4   2
     4      4      5   1
     5      5      6   2
     6      6      1   1
     7      4      7   1
     8      7      8   1
     9      8      9   2
    10      9     10   1
    11     10     11   2
    12     11     12   1
    13     12     13   2
    14     13      8   1
    15      3     14   1
    16      9     14   1
    17     15     16   2
    18     16     17   1
    19     17     18   2
    20     18     19   1
    21     19     20   2
    22     20     15   1
    23     18     21   1
    24     21     22   2
    25      7     15   1
    26      1     23   1
    27      2     24   1
    28      5     25   1
    29      6     26   1
    30     10     27   1
    31     11     28   1
    32     12     29   1
    33     13     30   1
    34     16     31   1
    35     17     32   1
    36     19     33   1
    37     20     34   1
    38     21     35   1
    39     22     36   1
    40     37     38   2
    41     38     39   1
    42     39     40   2
    43     40     41   1
    44     41     42   2
    45     42     37   1
    46     43     44   2
    47     43     45   1
    48     40     43   1
    49     38     46   1
    50     39     47   1
    51     41     48   1
    52     42     49   1
    53     22     37   1
