# Produced with molli package
@<TRIPOS>MOLECULE
I_7_R
48 52 0 0 0
SMALL
USER_CHARGES

@<TRIPOS>ATOM
     1 C      -8.232654     4.106311     1.796900 C          1 UNL1 0.000
     2 C      -8.888274     2.878152     1.822834 C          1 UNL1 0.000
     3 C      -8.150282     1.691088     1.870334 C          1 UNL1 0.000
     4 C      -6.745808     1.707403     1.888495 C          1 UNL1 0.000
     5 C      -6.103979     2.957861     1.865789 C          1 UNL1 0.000
     6 C      -6.841200     4.146131     1.820298 C          1 UNL1 0.000
     7 N      -6.031024     0.466074     1.929693 N          1 UNL1 0.000
     8 C      -6.802349    -0.742043     1.954703 C          1 UNL1 0.000
     9 C      -8.204398    -0.662663     1.935234 C          1 UNL1 0.000
    10 C      -8.995605    -1.815892     1.951709 C          1 UNL1 0.000
    11 C      -8.396647    -3.072445     1.990688 C          1 UNL1 0.000
    12 C      -7.008547    -3.174497     2.014035 C          1 UNL1 0.000
    13 C      -6.218272    -2.020325     1.996029 C          1 UNL1 0.000
    14 O      -8.889121     0.530253     1.892871 O          1 UNL1 0.000
    15 C      -4.607226     0.428529     1.844068 C          1 UNL1 0.000
    16 C      -3.822900     0.410172     3.003815 C          1 UNL1 0.000
    17 C      -2.428613     0.349730     2.911848 C          1 UNL1 0.000
    18 C      -1.796604     0.319247     1.661663 C          1 UNL1 0.000
    19 C      -2.584663     0.328369     0.503518 C          1 UNL1 0.000
    20 C      -3.977710     0.388178     0.593307 C          1 UNL1 0.000
    21 C      -0.332692     0.212432     1.603253 C          1 UNL1 0.000
    22 C       0.427966     0.865970     0.709055 C          1 UNL1 0.000
    23 H      -8.805487     5.029121     1.759772 H          1 UNL1 0.000
    24 H      -9.974029     2.840482     1.805453 H          1 UNL1 0.000
    25 H      -5.019790     3.027896     1.885556 H          1 UNL1 0.000
    26 H      -6.324239     5.102399     1.803532 H          1 UNL1 0.000
    27 H     -10.078545    -1.730087     1.932516 H          1 UNL1 0.000
    28 H      -9.010622    -3.969065     2.002759 H          1 UNL1 0.000
    29 H      -6.534978    -4.152669     2.045807 H          1 UNL1 0.000
    30 H      -5.138322    -2.139887     2.015700 H          1 UNL1 0.000
    31 H      -4.300851     0.434831     3.980028 H          1 UNL1 0.000
    32 H      -1.840667     0.330014     3.827029 H          1 UNL1 0.000
    33 H      -2.126948     0.269671    -0.480659 H          1 UNL1 0.000
    34 H      -4.578574     0.389542    -0.312831 H          1 UNL1 0.000
    35 H       0.127211    -0.422895     2.358117 H          1 UNL1 0.000
    36 H      -0.028210     1.530599    -0.018257 H          1 UNL1 0.000
    37 C       1.892479     0.764853     0.655272 C          1 UNL1 0.000
    38 N       2.478030    -0.250850     1.338029 N          1 UNL1 0.000
    39 C       3.829968    -0.351299     1.284335 C          1 UNL1 0.000
    40 C       4.623677     0.539350     0.582217 C          1 UNL1 0.000
    41 C       4.018536     1.582911    -0.117000 C          1 UNL1 0.000
    42 C       2.627461     1.689661    -0.085555 C          1 UNL1 0.000
    43 N       6.067319     0.381485     0.589268 N          1 UNL1 0.000
    44 O       6.751246     1.367088     0.279099 O          1 UNL1 0.000
    45 O       6.523315    -0.725907     0.903237 O          1 UNL1 0.000
    46 H       4.243447    -1.186241     1.844641 H          1 UNL1 0.000
    47 H       4.604045     2.305493    -0.680255 H          1 UNL1 0.000
    48 H       2.134103     2.494287    -0.622715 H          1 UNL1 0.000
@<TRIPOS>BOND
     1      1      2   2
     2      2      3   1
     3      3      4   2
     4      4      5   1
     5      5      6   2
     6      6      1   1
     7      4      7   1
     8      7      8   1
     9      8      9   2
    10      9     10   1
    11     10     11   2
    12     11     12   1
    13     12     13   2
    14     13      8   1
    15      3     14   1
    16      9     14   1
    17     15     16   2
    18     16     17   1
    19     17     18   2
    20     18     19   1
    21     19     20   2
    22     20     15   1
    23     18     21   1
    24     21     22   2
    25      7     15   1
    26      1     23   1
    27      2     24   1
    28      5     25   1
    29      6     26   1
    30     10     27   1
    31     11     28   1
    32     12     29   1
    33     13     30   1
    34     16     31   1
    35     17     32   1
    36     19     33   1
    37     20     34   1
    38     21     35   1
    39     22     36   1
    40     37     38   2
    41     38     39   1
    42     39     40   2
    43     40     41   1
    44     41     42   2
    45     42     37   1
    46     43     44   2
    47     43     45   1
    48     40     43   1
    49     39     46   1
    50     41     47   1
    51     42     48   1
    52     22     37   1
