# Produced with molli package
@<TRIPOS>MOLECULE
I_7_P
51 55 0 0 0
SMALL
USER_CHARGES

@<TRIPOS>ATOM
     1 C      -8.283961     4.098965     1.913748 C          1 UNL1 0.000
     2 C      -8.916394     2.858512     1.907807 C          1 UNL1 0.000
     3 C      -8.156233     1.684882     1.877639 C          1 UNL1 0.000
     4 C      -6.752261     1.727017     1.852462 C          1 UNL1 0.000
     5 C      -6.134175     2.989549     1.857110 C          1 UNL1 0.000
     6 C      -6.893538     4.164340     1.888577 C          1 UNL1 0.000
     7 N      -6.015199     0.498541     1.817343 N          1 UNL1 0.000
     8 C      -6.764140    -0.723798     1.814173 C          1 UNL1 0.000
     9 C      -8.167233    -0.670063     1.838455 C          1 UNL1 0.000
    10 C      -8.937110    -1.837763     1.833170 C          1 UNL1 0.000
    11 C      -8.315215    -3.083490     1.807577 C          1 UNL1 0.000
    12 C      -6.925453    -3.160369     1.789427 C          1 UNL1 0.000
    13 C      -6.156651    -1.991696     1.793510 C          1 UNL1 0.000
    14 O      -8.873664     0.510433     1.868747 O          1 UNL1 0.000
    15 C      -4.590986     0.490061     1.735557 C          1 UNL1 0.000
    16 C      -3.810831     0.545552     2.895795 C          1 UNL1 0.000
    17 C      -2.415036     0.514841     2.810280 C          1 UNL1 0.000
    18 C      -1.771001     0.435073     1.566398 C          1 UNL1 0.000
    19 C      -2.558627     0.372192     0.408975 C          1 UNL1 0.000
    20 C      -3.954431     0.405499     0.491491 C          1 UNL1 0.000
    21 C      -0.300139     0.368519     1.539277 C          1 UNL1 0.000
    22 C       0.470118     0.679117     0.484217 C          1 UNL1 0.000
    23 H      -8.873829     5.011432     1.936692 H          1 UNL1 0.000
    24 H     -10.001253     2.800822     1.925091 H          1 UNL1 0.000
    25 H      -5.051528     3.080359     1.835588 H          1 UNL1 0.000
    26 H      -6.394310     5.130168     1.892303 H          1 UNL1 0.000
    27 H     -10.021465    -1.771556     1.849645 H          1 UNL1 0.000
    28 H      -8.912693    -3.991239     1.803739 H          1 UNL1 0.000
    29 H      -6.433907    -4.129970     1.772856 H          1 UNL1 0.000
    30 H      -5.074587    -2.091547     1.783017 H          1 UNL1 0.000
    31 H      -4.292438     0.604713     3.868717 H          1 UNL1 0.000
    32 H      -1.835947     0.555736     3.730490 H          1 UNL1 0.000
    33 H      -2.104604     0.283578    -0.574084 H          1 UNL1 0.000
    34 H      -4.550384     0.356017    -0.416646 H          1 UNL1 0.000
    35 H       0.172977     0.064335     2.471782 H          1 UNL1 0.000
    36 H       0.063820     1.028923    -0.459001 H          1 UNL1 0.000
    37 C       1.930989     0.613663     0.557248 C          1 UNL1 0.000
    38 C       2.596174    -0.616201     0.644571 C          1 UNL1 0.000
    39 C       3.990768    -0.657143     0.709942 C          1 UNL1 0.000
    40 C       4.715482     0.531719     0.675059 C          1 UNL1 0.000
    41 C       4.065265     1.761594     0.612564 C          1 UNL1 0.000
    42 C       2.671917     1.801505     0.541933 C          1 UNL1 0.000
    43 O       6.079140     0.497194     0.776239 O          1 UNL1 0.000
    44 C       6.660729     0.422764    -0.525683 C          1 UNL1 0.000
    45 H       2.033386    -1.546493     0.663326 H          1 UNL1 0.000
    46 H       4.506595    -1.609221     0.790815 H          1 UNL1 0.000
    47 H       4.638211     2.683809     0.622697 H          1 UNL1 0.000
    48 H       2.167500     2.763460     0.490949 H          1 UNL1 0.000
    49 H       7.747825     0.466680    -0.409920 H          1 UNL1 0.000
    50 H       6.353228     1.268105    -1.151625 H          1 UNL1 0.000
    51 H       6.408752    -0.525020    -1.013791 H          1 UNL1 0.000
@<TRIPOS>BOND
     1      1      2   2
     2      2      3   1
     3      3      4   2
     4      4      5   1
     5      5      6   2
     6      6      1   1
     7      4      7   1
     8      7      8   1
     9      8      9   2
    10      9     10   1
    11     10     11   2
    12     11     12   1
    13     12     13   2
    14     13      8   1
    15      3     14   1
    16      9     14   1
    17     15     16   2
    18     16     17   1
    19     17     18   2
    20     18     19   1
    21     19     20   2
    22     20     15   1
    23     18     21   1
    24     21     22   2
    25      7     15   1
    26      1     23   1
    27      2     24   1
    28      5     25   1
    29      6     26   1
    30     10     27   1
    31     11     28   1
    32     12     29   1
    33     13     30   1
    34     16     31   1
    35     17     32   1
    36     19     33   1
    37     20     34   1
    38     21     35   1
    39     22     36   1
    40     37     38   2
    41     38     39   1
    42     39     40   2
    43     40     41   1
    44     41     42   2
    45     42     37   1
    46     43     44   1
    47     40     43   1
    48     38     45   1
    49     39     46   1
    50     41     47   1
    51     42     48   1
    52     44     49   1
    53     44     50   1
    54     44     51   1
    55     22     37   1
