# Produced with molli package
@<TRIPOS>MOLECULE
I_7_M
48 52 0 0 0
SMALL
USER_CHARGES

@<TRIPOS>ATOM
     1 C      -8.342764     4.119728     1.748266 C          1 UNL1 0.000
     2 C      -8.971869     2.877542     1.764149 C          1 UNL1 0.000
     3 C      -8.208914     1.706038     1.806406 C          1 UNL1 0.000
     4 C      -6.805509     1.752240     1.833501 C          1 UNL1 0.000
     5 C      -6.190803     3.016698     1.816425 C          1 UNL1 0.000
     6 C      -6.952750     4.189198     1.774537 C          1 UNL1 0.000
     7 N      -6.063717     0.525851     1.871703 N          1 UNL1 0.000
     8 C      -6.808614    -0.698521     1.872657 C          1 UNL1 0.000
     9 C      -8.212177    -0.648823     1.841193 C          1 UNL1 0.000
    10 C      -8.979153    -1.818347     1.834996 C          1 UNL1 0.000
    11 C      -8.354107    -3.062180     1.864164 C          1 UNL1 0.000
    12 C      -6.964283    -3.134968     1.901620 C          1 UNL1 0.000
    13 C      -6.198010    -1.964226     1.906428 C          1 UNL1 0.000
    14 O      -8.922455     0.529510     1.812302 O          1 UNL1 0.000
    15 C      -4.638281     0.526274     1.814041 C          1 UNL1 0.000
    16 C      -3.875432     0.611791     2.983893 C          1 UNL1 0.000
    17 C      -2.477493     0.638764     2.916281 C          1 UNL1 0.000
    18 C      -1.813608     0.576277     1.681543 C          1 UNL1 0.000
    19 C      -2.586227     0.495614     0.514433 C          1 UNL1 0.000
    20 C      -3.982772     0.464289     0.579264 C          1 UNL1 0.000
    21 C      -0.340733     0.649861     1.664502 C          1 UNL1 0.000
    22 C       0.437896     0.289126     0.631773 C          1 UNL1 0.000
    23 H      -8.934889     5.030383     1.714353 H          1 UNL1 0.000
    24 H     -10.056478     2.816976     1.741576 H          1 UNL1 0.000
    25 H      -5.108451     3.111111     1.834473 H          1 UNL1 0.000
    26 H      -6.455803     5.156100     1.761545 H          1 UNL1 0.000
    27 H     -10.063492    -1.754822     1.806823 H          1 UNL1 0.000
    28 H      -8.949358    -3.971455     1.859052 H          1 UNL1 0.000
    29 H      -6.471154    -4.103578     1.927570 H          1 UNL1 0.000
    30 H      -5.116107    -2.060294     1.938991 H          1 UNL1 0.000
    31 H      -4.372201     0.664855     3.949622 H          1 UNL1 0.000
    32 H      -1.914040     0.710195     3.844301 H          1 UNL1 0.000
    33 H      -2.122391     0.469800    -0.467401 H          1 UNL1 0.000
    34 H      -4.564526     0.404655    -0.337501 H          1 UNL1 0.000
    35 H       0.122117     1.010597     2.581627 H          1 UNL1 0.000
    36 H       0.032251    -0.115368    -0.290266 H          1 UNL1 0.000
    37 C       1.899196     0.376853     0.676664 C          1 UNL1 0.000
    38 C       2.656442    -0.793763     0.560069 C          1 UNL1 0.000
    39 C       4.052815    -0.734421     0.554481 C          1 UNL1 0.000
    40 C       4.702547     0.499567     0.656422 C          1 UNL1 0.000
    41 C       3.948962     1.672250     0.773778 C          1 UNL1 0.000
    42 C       2.551551     1.610536     0.785023 C          1 UNL1 0.000
    43 C       6.135270     0.561155     0.630194 C          1 UNL1 0.000
    44 N       7.293789     0.608329     0.604500 N          1 UNL1 0.000
    45 H       2.163106    -1.759996     0.474628 H          1 UNL1 0.000
    46 H       4.625125    -1.655782     0.464052 H          1 UNL1 0.000
    47 H       4.441367     2.640217     0.848167 H          1 UNL1 0.000
    48 H       1.977480     2.531907     0.861063 H          1 UNL1 0.000
@<TRIPOS>BOND
     1      1      2   2
     2      2      3   1
     3      3      4   2
     4      4      5   1
     5      5      6   2
     6      6      1   1
     7      4      7   1
     8      7      8   1
     9      8      9   2
    10      9     10   1
    11     10     11   2
    12     11     12   1
    13     12     13   2
    14     13      8   1
    15      3     14   1
    16      9     14   1
    17     15     16   2
    18     16     17   1
    19     17     18   2
    20     18     19   1
    21     19     20   2
    22     20     15   1
    23     18     21   1
    24     21     22   2
    25      7     15   1
    26      1     23   1
    27      2     24   1
    28      5     25   1
    29      6     26   1
    30     10     27   1
    31     11     28   1
    32     12     29   1
    33     13     30   1
    34     16     31   1
    35     17     32   1
    36     19     33   1
    37     20     34   1
    38     21     35   1
    39     22     36   1
    40     37     38   2
    41     38     39   1
    42     39     40   2
    43     40     41   1
    44     41     42   2
    45     42     37   1
    46     43     44   3
    47     40     43   1
    48     38     45   1
    49     39     46   1
    50     41     47   1
    51     42     48   1
    52     22     37   1
