# Produced with molli package
@<TRIPOS>MOLECULE
I_7_O
46 50 0 0 0
SMALL
USER_CHARGES

@<TRIPOS>ATOM
     1 C      -8.354744     4.116446     1.961647 C          1 UNL1 0.000
     2 C      -8.985691     2.875482     1.935245 C          1 UNL1 0.000
     3 C      -8.223852     1.703130     1.900175 C          1 UNL1 0.000
     4 C      -6.819720     1.747241     1.889959 C          1 UNL1 0.000
     5 C      -6.203061     3.010064     1.916581 C          1 UNL1 0.000
     6 C      -6.964140     4.183591     1.952734 C          1 UNL1 0.000
     7 N      -6.081003     0.520363     1.849512 N          1 UNL1 0.000
     8 C      -6.828071    -0.702918     1.825146 C          1 UNL1 0.000
     9 C      -8.231344    -0.651386     1.836108 C          1 UNL1 0.000
    10 C      -8.999257    -1.820125     1.809321 C          1 UNL1 0.000
    11 C      -8.375194    -3.064597     1.774393 C          1 UNL1 0.000
    12 C      -6.985237    -3.139227     1.768066 C          1 UNL1 0.000
    13 C      -6.218418    -1.969596     1.793751 C          1 UNL1 0.000
    14 O      -8.939650     0.527888     1.872135 O          1 UNL1 0.000
    15 C      -4.655803     0.513143     1.780270 C          1 UNL1 0.000
    16 C      -3.886813     0.518350     2.950736 C          1 UNL1 0.000
    17 C      -2.491450     0.471413     2.878347 C          1 UNL1 0.000
    18 C      -1.843404     0.432354     1.637236 C          1 UNL1 0.000
    19 C      -2.614545     0.424964     0.467795 C          1 UNL1 0.000
    20 C      -4.009430     0.469763     0.538047 C          1 UNL1 0.000
    21 C      -0.380197     0.322295     1.600417 C          1 UNL1 0.000
    22 C       0.399586     0.991672     0.734780 C          1 UNL1 0.000
    23 H      -8.945936     5.027922     1.988657 H          1 UNL1 0.000
    24 H     -10.070586     2.816361     1.940834 H          1 UNL1 0.000
    25 H      -5.120258     3.101488     1.909967 H          1 UNL1 0.000
    26 H      -6.466115     5.149789     1.973578 H          1 UNL1 0.000
    27 H     -10.083790    -1.755834     1.815948 H          1 UNL1 0.000
    28 H      -8.971011    -3.973184     1.753583 H          1 UNL1 0.000
    29 H      -6.491694    -4.107662     1.743637 H          1 UNL1 0.000
    30 H      -5.136055    -2.067865     1.790854 H          1 UNL1 0.000
    31 H      -4.377746     0.545229     3.920316 H          1 UNL1 0.000
    32 H      -1.914106     0.464698     3.800387 H          1 UNL1 0.000
    33 H      -2.140327     0.360399    -0.508320 H          1 UNL1 0.000
    34 H      -4.597777     0.454080    -0.376037 H          1 UNL1 0.000
    35 H       0.063128    -0.342462     2.339572 H          1 UNL1 0.000
    36 H      -0.039688     1.677817     0.017830 H          1 UNL1 0.000
    37 C       1.864090     0.865333     0.689055 C          1 UNL1 0.000
    38 N       2.438297    -0.064955     1.488267 N          1 UNL1 0.000
    39 C       3.781928    -0.191978     1.429960 C          1 UNL1 0.000
    40 C       4.593789     0.571617     0.609537 C          1 UNL1 0.000
    41 C       3.991584     1.523969    -0.202383 C          1 UNL1 0.000
    42 C       2.606887     1.674243    -0.166426 C          1 UNL1 0.000
    43 H       4.201657    -0.951925     2.082694 H          1 UNL1 0.000
    44 H       5.668115     0.426943     0.603552 H          1 UNL1 0.000
    45 H       4.592970     2.144756    -0.860191 H          1 UNL1 0.000
    46 H       2.126442     2.413856    -0.797962 H          1 UNL1 0.000
@<TRIPOS>BOND
     1      1      2   2
     2      2      3   1
     3      3      4   2
     4      4      5   1
     5      5      6   2
     6      6      1   1
     7      4      7   1
     8      7      8   1
     9      8      9   2
    10      9     10   1
    11     10     11   2
    12     11     12   1
    13     12     13   2
    14     13      8   1
    15      3     14   1
    16      9     14   1
    17     15     16   2
    18     16     17   1
    19     17     18   2
    20     18     19   1
    21     19     20   2
    22     20     15   1
    23     18     21   1
    24     21     22   2
    25      7     15   1
    26      1     23   1
    27      2     24   1
    28      5     25   1
    29      6     26   1
    30     10     27   1
    31     11     28   1
    32     12     29   1
    33     13     30   1
    34     16     31   1
    35     17     32   1
    36     19     33   1
    37     20     34   1
    38     21     35   1
    39     22     36   1
    40     37     38   2
    41     38     39   1
    42     39     40   2
    43     40     41   1
    44     41     42   2
    45     42     37   1
    46     39     43   1
    47     40     44   1
    48     41     45   1
    49     42     46   1
    50     22     37   1
