# Produced with molli package
@<TRIPOS>MOLECULE
I_7_Q
45 49 0 0 0
SMALL
USER_CHARGES

@<TRIPOS>ATOM
     1 C      -8.341048     4.158787     1.812919 C          1 UNL1 0.000
     2 C      -8.962022     2.913058     1.856532 C          1 UNL1 0.000
     3 C      -8.192187     1.745351     1.846408 C          1 UNL1 0.000
     4 C      -6.790092     1.799156     1.789549 C          1 UNL1 0.000
     5 C      -6.183457     3.067073     1.749298 C          1 UNL1 0.000
     6 C      -6.952183     4.235729     1.760584 C          1 UNL1 0.000
     7 N      -6.041264     0.576780     1.778634 N          1 UNL1 0.000
     8 C      -6.776528    -0.651492     1.837854 C          1 UNL1 0.000
     9 C      -8.179611    -0.609539     1.894228 C          1 UNL1 0.000
    10 C      -8.938216    -1.783144     1.949990 C          1 UNL1 0.000
    11 C      -8.304971    -3.023216     1.951282 C          1 UNL1 0.000
    12 C      -6.915335    -3.088233     1.896455 C          1 UNL1 0.000
    13 C      -6.157489    -1.913476     1.839496 C          1 UNL1 0.000
    14 O      -8.897453     0.564764     1.895489 O          1 UNL1 0.000
    15 C      -4.617480     0.586529     1.691907 C          1 UNL1 0.000
    16 C      -3.836487     0.579267     2.853140 C          1 UNL1 0.000
    17 C      -2.442336     0.625489     2.765537 C          1 UNL1 0.000
    18 C      -1.802661     0.670024     1.518384 C          1 UNL1 0.000
    19 C      -2.587926     0.677037     0.358347 C          1 UNL1 0.000
    20 C      -3.983222     0.630578     0.443902 C          1 UNL1 0.000
    21 C      -0.336692     0.782185     1.486005 C          1 UNL1 0.000
    22 C       0.448815     0.301895     0.507909 C          1 UNL1 0.000
    23 H      -8.938586     5.066487     1.820812 H          1 UNL1 0.000
    24 H     -10.045683     2.846897     1.898874 H          1 UNL1 0.000
    25 H      -5.102146     3.167065     1.710179 H          1 UNL1 0.000
    26 H      -6.461451     5.205358     1.728576 H          1 UNL1 0.000
    27 H     -10.022428    -1.725803     1.991487 H          1 UNL1 0.000
    28 H      -8.893588    -3.935773     1.994176 H          1 UNL1 0.000
    29 H      -6.415532    -4.053799     1.896962 H          1 UNL1 0.000
    30 H      -5.075405    -2.003849     1.796191 H          1 UNL1 0.000
    31 H      -4.317285     0.548509     3.827796 H          1 UNL1 0.000
    32 H      -1.861404     0.624976     3.685410 H          1 UNL1 0.000
    33 H      -2.130731     0.735574    -0.626051 H          1 UNL1 0.000
    34 H      -4.581240     0.642050    -0.464208 H          1 UNL1 0.000
    35 H       0.108021     1.261703     2.356137 H          1 UNL1 0.000
    36 H       0.050053    -0.249806    -0.337498 H          1 UNL1 0.000
    37 C       1.908021     0.402239     0.539081 C          1 UNL1 0.000
    38 N       2.576193    -0.734659     0.231757 N          1 UNL1 0.000
    39 C       3.926601    -0.651781     0.274182 C          1 UNL1 0.000
    40 C       4.593138     0.521366     0.585745 C          1 UNL1 0.000
    41 N       3.940455     1.670899     0.864436 N          1 UNL1 0.000
    42 C       2.586848     1.583786     0.830536 C          1 UNL1 0.000
    43 H       4.464393    -1.566394     0.052204 H          1 UNL1 0.000
    44 H       5.675606     0.567285     0.618868 H          1 UNL1 0.000
    45 H       2.058984     2.507359     1.042397 H          1 UNL1 0.000
@<TRIPOS>BOND
     1      1      2   2
     2      2      3   1
     3      3      4   2
     4      4      5   1
     5      5      6   2
     6      6      1   1
     7      4      7   1
     8      7      8   1
     9      8      9   2
    10      9     10   1
    11     10     11   2
    12     11     12   1
    13     12     13   2
    14     13      8   1
    15      3     14   1
    16      9     14   1
    17     15     16   2
    18     16     17   1
    19     17     18   2
    20     18     19   1
    21     19     20   2
    22     20     15   1
    23     18     21   1
    24     21     22   2
    25      7     15   1
    26      1     23   1
    27      2     24   1
    28      5     25   1
    29      6     26   1
    30     10     27   1
    31     11     28   1
    32     12     29   1
    33     13     30   1
    34     16     31   1
    35     17     32   1
    36     19     33   1
    37     20     34   1
    38     21     35   1
    39     22     36   1
    40     37     38   2
    41     38     39   1
    42     39     40   2
    43     40     41   1
    44     41     42   2
    45     42     37   1
    46     39     43   1
    47     40     44   1
    48     42     45   1
    49     22     37   1
