# Produced with molli package
@<TRIPOS>MOLECULE
I_7_N
44 48 0 0 0
SMALL
USER_CHARGES

@<TRIPOS>ATOM
     1 C      -8.266606     4.179871     1.993517 C          1 UNL1 0.000
     2 C      -8.953806     2.968934     1.977408 C          1 UNL1 0.000
     3 C      -8.246980     1.763037     1.927635 C          1 UNL1 0.000
     4 C      -6.842712     1.743155     1.893135 C          1 UNL1 0.000
     5 C      -6.168792     2.976649     1.910796 C          1 UNL1 0.000
     6 C      -6.874806     4.183599     1.960524 C          1 UNL1 0.000
     7 N      -6.160938     0.483758     1.843238 N          1 UNL1 0.000
     8 C      -6.963124    -0.704119     1.831208 C          1 UNL1 0.000
     9 C      -8.362365    -0.588868     1.868791 C          1 UNL1 0.000
    10 C      -9.183036    -1.721522     1.859779 C          1 UNL1 0.000
    11 C      -8.616928    -2.992964     1.812009 C          1 UNL1 0.000
    12 C      -7.232255    -3.130457     1.773429 C          1 UNL1 0.000
    13 C      -6.412624    -1.996892     1.782652 C          1 UNL1 0.000
    14 O      -9.015652     0.621424     1.916272 O          1 UNL1 0.000
    15 C      -4.736249     0.412156     1.811170 C          1 UNL1 0.000
    16 C      -4.003909     0.323387     3.001939 C          1 UNL1 0.000
    17 C      -2.609794     0.231337     2.968704 C          1 UNL1 0.000
    18 C      -1.925484     0.238953     1.746948 C          1 UNL1 0.000
    19 C      -2.659161     0.320639     0.556175 C          1 UNL1 0.000
    20 C      -4.053742     0.411057     0.587829 C          1 UNL1 0.000
    21 C      -0.463843     0.094489     1.750453 C          1 UNL1 0.000
    22 C       0.356105     0.830182     0.980102 C          1 UNL1 0.000
    23 H      -8.815000     5.117368     2.032263 H          1 UNL1 0.000
    24 H     -10.039989     2.959599     2.004111 H          1 UNL1 0.000
    25 H      -5.083261     3.019051     1.886849 H          1 UNL1 0.000
    26 H      -6.333138     5.126182     1.974014 H          1 UNL1 0.000
    27 H     -10.263216    -1.608235     1.890348 H          1 UNL1 0.000
    28 H      -9.253715    -3.873608     1.804789 H          1 UNL1 0.000
    29 H      -6.784237    -4.120364     1.736127 H          1 UNL1 0.000
    30 H      -5.336470    -2.143971     1.750986 H          1 UNL1 0.000
    31 H      -4.523632     0.319834     3.956921 H          1 UNL1 0.000
    32 H      -2.063638     0.159775     3.906717 H          1 UNL1 0.000
    33 H      -2.156860     0.298362    -0.408089 H          1 UNL1 0.000
    34 H      -4.613568     0.469562    -0.342433 H          1 UNL1 0.000
    35 H      -0.074169    -0.641755     2.447598 H          1 UNL1 0.000
    36 H      -0.088602     1.586020     0.334055 H          1 UNL1 0.000
    37 C       1.787051     0.741385     0.935358 C          1 UNL1 0.000
    38 C       2.542799    -0.263552     1.504391 C          1 UNL1 0.000
    39 S       4.222755    -0.048782     1.244359 S          1 UNL1 0.000
    40 C       3.955480     1.389705     0.361293 C          1 UNL1 0.000
    41 C       2.615286     1.696167     0.266045 C          1 UNL1 0.000
    42 H       2.208593    -1.128077     2.060206 H          1 UNL1 0.000
    43 H       4.791621     1.940733    -0.046592 H          1 UNL1 0.000
    44 H       2.251721     2.571987    -0.257888 H          1 UNL1 0.000
@<TRIPOS>BOND
     1      1      2   2
     2      2      3   1
     3      3      4   2
     4      4      5   1
     5      5      6   2
     6      6      1   1
     7      4      7   1
     8      7      8   1
     9      8      9   2
    10      9     10   1
    11     10     11   2
    12     11     12   1
    13     12     13   2
    14     13      8   1
    15      3     14   1
    16      9     14   1
    17     15     16   2
    18     16     17   1
    19     17     18   2
    20     18     19   1
    21     19     20   2
    22     20     15   1
    23     18     21   1
    24     21     22   2
    25      7     15   1
    26      1     23   1
    27      2     24   1
    28      5     25   1
    29      6     26   1
    30     10     27   1
    31     11     28   1
    32     12     29   1
    33     13     30   1
    34     16     31   1
    35     17     32   1
    36     19     33   1
    37     20     34   1
    38     21     35   1
    39     22     36   1
    40     37     38   2
    41     38     39   1
    42     39     40   1
    43     40     41   2
    44     41     37   1
    45     38     42   1
    46     40     43   1
    47     41     44   1
    48     22     37   1
