# Produced with molli package
@<TRIPOS>MOLECULE
I_8_T
47 52 0 0 0
SMALL
USER_CHARGES

@<TRIPOS>ATOM
     1 C      -6.172074     4.130558     0.529557 C          1 UNL1 0.000
     2 C      -6.794138     2.885319     0.501764 C          1 UNL1 0.000
     3 C      -6.024362     1.717673     0.482094 C          1 UNL1 0.000
     4 C      -4.620807     1.770002     0.494297 C          1 UNL1 0.000
     5 C      -4.013291     3.037883     0.516160 C          1 UNL1 0.000
     6 C      -4.782273     4.206718     0.534796 C          1 UNL1 0.000
     7 N      -3.873983     0.547025     0.472103 N          1 UNL1 0.000
     8 C      -4.612607    -0.680820     0.460164 C          1 UNL1 0.000
     9 C      -6.016580    -0.637028     0.446396 C          1 UNL1 0.000
    10 C      -6.778954    -1.809552     0.436267 C          1 UNL1 0.000
    11 C      -6.149061    -3.051100     0.441037 C          1 UNL1 0.000
    12 C      -4.758856    -3.118661     0.456824 C          1 UNL1 0.000
    13 C      -3.997148    -1.944956     0.467406 C          1 UNL1 0.000
    14 O      -6.732258     0.538227     0.447919 O          1 UNL1 0.000
    15 C      -2.451182     0.551036     0.562227 C          1 UNL1 0.000
    16 C      -1.664338     0.444588    -0.610493 C          1 UNL1 0.000
    17 C      -0.250646     0.450919    -0.610655 C          1 UNL1 0.000
    18 C       0.526038     0.564380     0.563156 C          1 UNL1 0.000
    19 C      -0.203171     0.671390     1.783456 C          1 UNL1 0.000
    20 C      -1.717275     0.664907     1.782584 C          1 UNL1 0.000
    21 N       0.311572     0.787901     3.021089 N          1 UNL1 0.000
    22 S      -0.966667     0.876131     4.070172 S          1 UNL1 0.000
    23 N      -2.239101     0.775383     3.017088 N          1 UNL1 0.000
    24 H      -6.769477     5.038166     0.547946 H          1 UNL1 0.000
    25 H      -7.878605     2.819015     0.497342 H          1 UNL1 0.000
    26 H      -2.932432     3.141349     0.521400 H          1 UNL1 0.000
    27 H      -4.291267     5.176513     0.556326 H          1 UNL1 0.000
    28 H      -7.863826    -1.749844     0.429463 H          1 UNL1 0.000
    29 H      -6.740883    -3.962556     0.437106 H          1 UNL1 0.000
    30 H      -4.262094    -4.085742     0.465531 H          1 UNL1 0.000
    31 H      -2.915798    -2.041826     0.486969 H          1 UNL1 0.000
    32 H      -2.179007     0.357861    -1.569049 H          1 UNL1 0.000
    33 H       0.262502     0.367484    -1.570472 H          1 UNL1 0.000
    34 C       1.983921     0.583662     0.538181 C          1 UNL1 0.000
    35 C       2.720745    -0.605268     0.628414 C          1 UNL1 0.000
    36 C       4.118179    -0.586860     0.580937 C          1 UNL1 0.000
    37 C       4.806454     0.621941     0.436786 C          1 UNL1 0.000
    38 C       4.076707     1.812620     0.354296 C          1 UNL1 0.000
    39 C       2.680081     1.792742     0.402319 C          1 UNL1 0.000
    40 C       6.305228     0.657927     0.394408 C          1 UNL1 0.000
    41 H       2.208850    -1.558397     0.742995 H          1 UNL1 0.000
    42 H       4.662621    -1.525031     0.659794 H          1 UNL1 0.000
    43 H       4.591815     2.765416     0.254728 H          1 UNL1 0.000
    44 H       2.136031     2.732717     0.338700 H          1 UNL1 0.000
    45 H       6.694779     1.163155     1.283835 H          1 UNL1 0.000
    46 H       6.645612     1.189854    -0.500061 H          1 UNL1 0.000
    47 H       6.730237    -0.350638     0.362106 H          1 UNL1 0.000
@<TRIPOS>BOND
     1      1      2   2
     2      2      3   1
     3      3      4   2
     4      4      5   1
     5      5      6   2
     6      6      1   1
     7      4      7   1
     8      7      8   1
     9      8      9   2
    10      9     10   1
    11     10     11   2
    12     11     12   1
    13     12     13   2
    14     13      8   1
    15      3     14   1
    16      9     14   1
    17     15     16   2
    18     16     17   1
    19     17     18   2
    20     18     19   1
    21     19     20   1
    22     20     15   1
    23     19     21   2
    24     21     22   1
    25     22     23   1
    26     23     20   2
    27      7     15   1
    28      1     24   1
    29      2     25   1
    30      5     26   1
    31      6     27   1
    32     10     28   1
    33     11     29   1
    34     12     30   1
    35     13     31   1
    36     16     32   1
    37     17     33   1
    38     34     35   2
    39     35     36   1
    40     36     37   2
    41     37     38   1
    42     38     39   2
    43     39     34   1
    44     37     40   1
    45     35     41   1
    46     36     42   1
    47     38     43   1
    48     39     44   1
    49     40     45   1
    50     40     46   1
    51     40     47   1
    52     18     34   1
