# Produced with molli package
@<TRIPOS>MOLECULE
I_8_L
48 54 0 0 0
SMALL
USER_CHARGES

@<TRIPOS>ATOM
     1 C      -6.147884     4.101026     0.510387 C          1 UNL1 0.000
     2 C      -6.774509     2.857995     0.511920 C          1 UNL1 0.000
     3 C      -6.008696     1.687614     0.511549 C          1 UNL1 0.000
     4 C      -4.604500     1.734615     0.504816 C          1 UNL1 0.000
     5 C      -3.992278     3.000071     0.510927 C          1 UNL1 0.000
     6 C      -4.757589     4.171871     0.513142 C          1 UNL1 0.000
     7 N      -3.863048     0.508546     0.486855 N          1 UNL1 0.000
     8 C      -4.607246    -0.716199     0.501283 C          1 UNL1 0.000
     9 C      -6.010669    -0.667126     0.526226 C          1 UNL1 0.000
    10 C      -6.777062    -1.836765     0.553464 C          1 UNL1 0.000
    11 C      -6.151800    -3.080661     0.544449 C          1 UNL1 0.000
    12 C      -4.762328    -3.153429     0.505718 C          1 UNL1 0.000
    13 C      -3.996577    -1.982608     0.485565 C          1 UNL1 0.000
    14 O      -6.721685     0.510762     0.523340 O          1 UNL1 0.000
    15 C      -2.440016     0.503429     0.572714 C          1 UNL1 0.000
    16 C      -1.654102     0.536292    -0.605352 C          1 UNL1 0.000
    17 C      -0.239405     0.517175    -0.607537 C          1 UNL1 0.000
    18 C       0.538043     0.462877     0.569803 C          1 UNL1 0.000
    19 C      -0.191301     0.430099     1.794938 C          1 UNL1 0.000
    20 C      -1.704619     0.450781     1.795960 C          1 UNL1 0.000
    21 N       0.324820     0.380644     3.036370 N          1 UNL1 0.000
    22 S      -0.951404     0.358926     4.090674 S          1 UNL1 0.000
    23 N      -2.225000     0.413666     3.035631 N          1 UNL1 0.000
    24 H      -6.742244     5.010870     0.511507 H          1 UNL1 0.000
    25 H      -7.859254     2.795257     0.515911 H          1 UNL1 0.000
    26 H      -2.910969     3.098967     0.516361 H          1 UNL1 0.000
    27 H      -4.263650     5.140413     0.518959 H          1 UNL1 0.000
    28 H      -7.861283    -1.773064     0.583546 H          1 UNL1 0.000
    29 H      -6.746478    -3.989932     0.567606 H          1 UNL1 0.000
    30 H      -4.268928    -4.122174     0.494921 H          1 UNL1 0.000
    31 H      -2.915728    -2.083198     0.458248 H          1 UNL1 0.000
    32 H      -2.170340     0.573882    -1.566240 H          1 UNL1 0.000
    33 H       0.272435     0.542287    -1.571324 H          1 UNL1 0.000
    34 C       1.997570     0.444787     0.555040 C          1 UNL1 0.000
    35 C       2.722314     1.644659     0.529215 C          1 UNL1 0.000
    36 C       4.122528     1.662441     0.528622 C          1 UNL1 0.000
    37 C       4.783503     0.430758     0.552059 C          1 UNL1 0.000
    38 C       4.104803    -0.786576     0.570417 C          1 UNL1 0.000
    39 C       2.695212    -0.777614     0.570118 C          1 UNL1 0.000
    40 N       6.130253     0.144338     0.570027 N          1 UNL1 0.000
    41 C       6.325341    -1.211439     0.591601 C          1 UNL1 0.000
    42 C       5.088239    -1.814202     0.592421 C          1 UNL1 0.000
    43 H       2.191750     2.595521     0.523798 H          1 UNL1 0.000
    44 H       4.666371     2.601089     0.520624 H          1 UNL1 0.000
    45 H       2.154634    -1.719870     0.595715 H          1 UNL1 0.000
    46 H       6.863516     0.839294     0.572451 H          1 UNL1 0.000
    47 H       7.323458    -1.628031     0.609234 H          1 UNL1 0.000
    48 H       4.906444    -2.880670     0.612446 H          1 UNL1 0.000
@<TRIPOS>BOND
     1      1      2   2
     2      2      3   1
     3      3      4   2
     4      4      5   1
     5      5      6   2
     6      6      1   1
     7      4      7   1
     8      7      8   1
     9      8      9   2
    10      9     10   1
    11     10     11   2
    12     11     12   1
    13     12     13   2
    14     13      8   1
    15      3     14   1
    16      9     14   1
    17     15     16   2
    18     16     17   1
    19     17     18   2
    20     18     19   1
    21     19     20   1
    22     20     15   1
    23     19     21   2
    24     21     22   1
    25     22     23   1
    26     23     20   2
    27      7     15   1
    28      1     24   1
    29      2     25   1
    30      5     26   1
    31      6     27   1
    32     10     28   1
    33     11     29   1
    34     12     30   1
    35     13     31   1
    36     16     32   1
    37     17     33   1
    38     34     35   2
    39     35     36   1
    40     36     37   2
    41     37     38   1
    42     38     39   2
    43     39     34   1
    44     37     40   1
    45     40     41   1
    46     41     42   2
    47     42     38   1
    48     35     43   1
    49     36     44   1
    50     39     45   1
    51     40     46   1
    52     41     47   1
    53     42     48   1
    54     18     34   1
