# Produced with molli package
@<TRIPOS>MOLECULE
I_8_P
48 53 0 0 0
SMALL
USER_CHARGES

@<TRIPOS>ATOM
     1 C      -6.066008     4.074637     0.310080 C          1 UNL1 0.000
     2 C      -6.704173     2.837254     0.297962 C          1 UNL1 0.000
     3 C      -5.951225     1.659884     0.353785 C          1 UNL1 0.000
     4 C      -4.548754     1.694720     0.421775 C          1 UNL1 0.000
     5 C      -3.924696     2.954727     0.431411 C          1 UNL1 0.000
     6 C      -4.676941     4.133235     0.376797 C          1 UNL1 0.000
     7 N      -3.819518     0.462190     0.473918 N          1 UNL1 0.000
     8 C      -4.574430    -0.755022     0.493215 C          1 UNL1 0.000
     9 C      -5.976090    -0.694108     0.421897 C          1 UNL1 0.000
    10 C      -6.754317    -1.856032     0.435233 C          1 UNL1 0.000
    11 C      -6.142837    -3.103724     0.522495 C          1 UNL1 0.000
    12 C      -4.755277    -3.187916     0.595969 C          1 UNL1 0.000
    13 C      -3.977553    -2.024777     0.581356 C          1 UNL1 0.000
    14 O      -6.673806     0.488950     0.336088 O          1 UNL1 0.000
    15 C      -2.397743     0.452263     0.572593 C          1 UNL1 0.000
    16 C      -1.605163     0.389282    -0.599873 C          1 UNL1 0.000
    17 C      -0.191165     0.397591    -0.593792 C          1 UNL1 0.000
    18 C       0.579667     0.473336     0.586481 C          1 UNL1 0.000
    19 C      -0.156509     0.530364     1.807115 C          1 UNL1 0.000
    20 C      -1.669989     0.518259     1.799048 C          1 UNL1 0.000
    21 N       0.352666     0.600026     3.049894 N          1 UNL1 0.000
    22 S      -0.929819     0.640687     4.096781 S          1 UNL1 0.000
    23 N      -2.197543     0.579222     3.034991 N          1 UNL1 0.000
    24 H      -6.650545     4.989953     0.270630 H          1 UNL1 0.000
    25 H      -7.788288     2.784865     0.248410 H          1 UNL1 0.000
    26 H      -2.844037     3.044683     0.487123 H          1 UNL1 0.000
    27 H      -4.173746     5.096940     0.390313 H          1 UNL1 0.000
    28 H      -7.837062    -1.783184     0.381395 H          1 UNL1 0.000
    29 H      -6.747083    -4.006899     0.537111 H          1 UNL1 0.000
    30 H      -4.273319    -4.159729     0.669300 H          1 UNL1 0.000
    31 H      -2.899145    -2.133436     0.646965 H          1 UNL1 0.000
    32 H      -2.116111     0.339275    -1.562996 H          1 UNL1 0.000
    33 H       0.325054     0.355066    -1.554644 H          1 UNL1 0.000
    34 C       2.038116     0.509475     0.573726 C          1 UNL1 0.000
    35 C       2.786681    -0.670031     0.435533 C          1 UNL1 0.000
    36 C       4.184204    -0.631621     0.419384 C          1 UNL1 0.000
    37 C       4.842909     0.591517     0.523495 C          1 UNL1 0.000
    38 C       4.118823     1.768470     0.685516 C          1 UNL1 0.000
    39 C       2.722930     1.728532     0.700473 C          1 UNL1 0.000
    40 O       6.207761     0.677461     0.551926 O          1 UNL1 0.000
    41 C       6.778327     0.280802    -0.694120 C          1 UNL1 0.000
    42 H       2.283434    -1.631785     0.361633 H          1 UNL1 0.000
    43 H       4.746481    -1.557723     0.350040 H          1 UNL1 0.000
    44 H       4.638512     2.715333     0.799717 H          1 UNL1 0.000
    45 H       2.169878     2.657232     0.824261 H          1 UNL1 0.000
    46 H       7.846955     0.513664    -0.660590 H          1 UNL1 0.000
    47 H       6.337076     0.839477    -1.527429 H          1 UNL1 0.000
    48 H       6.674554    -0.796738    -0.856203 H          1 UNL1 0.000
@<TRIPOS>BOND
     1      1      2   2
     2      2      3   1
     3      3      4   2
     4      4      5   1
     5      5      6   2
     6      6      1   1
     7      4      7   1
     8      7      8   1
     9      8      9   2
    10      9     10   1
    11     10     11   2
    12     11     12   1
    13     12     13   2
    14     13      8   1
    15      3     14   1
    16      9     14   1
    17     15     16   2
    18     16     17   1
    19     17     18   2
    20     18     19   1
    21     19     20   1
    22     20     15   1
    23     19     21   2
    24     21     22   1
    25     22     23   1
    26     23     20   2
    27      7     15   1
    28      1     24   1
    29      2     25   1
    30      5     26   1
    31      6     27   1
    32     10     28   1
    33     11     29   1
    34     12     30   1
    35     13     31   1
    36     16     32   1
    37     17     33   1
    38     34     35   2
    39     35     36   1
    40     36     37   2
    41     37     38   1
    42     38     39   2
    43     39     34   1
    44     40     41   1
    45     37     40   1
    46     35     42   1
    47     36     43   1
    48     38     44   1
    49     39     45   1
    50     41     46   1
    51     41     47   1
    52     41     48   1
    53     18     34   1
