# Produced with molli package
@<TRIPOS>MOLECULE
I_8_K
46 51 0 0 0
SMALL
USER_CHARGES

@<TRIPOS>ATOM
     1 C      -6.106484     4.168981     0.538261 C          1 UNL1 0.000
     2 C      -6.758251     2.939658     0.488600 C          1 UNL1 0.000
     3 C      -6.017648     1.753249     0.490936 C          1 UNL1 0.000
     4 C      -4.614208     1.770943     0.543366 C          1 UNL1 0.000
     5 C      -3.976310     3.023078     0.593092 C          1 UNL1 0.000
     6 C      -4.716178     4.210600     0.590333 C          1 UNL1 0.000
     7 N      -3.897786     0.529904     0.540311 N          1 UNL1 0.000
     8 C      -4.665250    -0.679359     0.509954 C          1 UNL1 0.000
     9 C      -6.066910    -0.601163     0.458671 C          1 UNL1 0.000
    10 C      -6.856996    -1.754613     0.424180 C          1 UNL1 0.000
    11 C      -6.257583    -3.011077     0.439902 C          1 UNL1 0.000
    12 C      -4.870174    -3.112544     0.490362 C          1 UNL1 0.000
    13 C      -4.080624    -1.957832     0.525363 C          1 UNL1 0.000
    14 O      -6.753117     0.591473     0.438743 O          1 UNL1 0.000
    15 C      -2.476503     0.500876     0.638768 C          1 UNL1 0.000
    16 C      -1.682833     0.506637    -0.534738 C          1 UNL1 0.000
    17 C      -0.268814     0.495951    -0.527991 C          1 UNL1 0.000
    18 C       0.499922     0.481039     0.655580 C          1 UNL1 0.000
    19 C      -0.237165     0.468229     1.876460 C          1 UNL1 0.000
    20 C      -1.749991     0.477329     1.867813 C          1 UNL1 0.000
    21 N       0.274158     0.448634     3.120724 N          1 UNL1 0.000
    22 S      -1.009456     0.439655     4.168671 S          1 UNL1 0.000
    23 N      -2.276752     0.464299     3.104839 N          1 UNL1 0.000
    24 H      -6.681543     5.091166     0.539173 H          1 UNL1 0.000
    25 H      -7.843435     2.900537     0.450646 H          1 UNL1 0.000
    26 H      -2.894257     3.099660     0.638944 H          1 UNL1 0.000
    27 H      -4.202711     5.168046     0.632396 H          1 UNL1 0.000
    28 H      -7.939539    -1.668612     0.387799 H          1 UNL1 0.000
    29 H      -6.871075    -3.907840     0.415811 H          1 UNL1 0.000
    30 H      -4.397767    -4.091677     0.506125 H          1 UNL1 0.000
    31 H      -3.002728    -2.080616     0.569031 H          1 UNL1 0.000
    32 H      -2.193649     0.525209    -1.499326 H          1 UNL1 0.000
    33 H       0.246904     0.507419    -1.489869 H          1 UNL1 0.000
    34 C       1.958708     0.486585     0.650564 C          1 UNL1 0.000
    35 C       2.667945     1.690948     0.800267 C          1 UNL1 0.000
    36 C       4.065279     1.704789     0.802372 C          1 UNL1 0.000
    37 C       4.760308     0.501208     0.648072 C          1 UNL1 0.000
    38 C       4.076521    -0.709170     0.491746 C          1 UNL1 0.000
    39 C       2.678745    -0.709940     0.494795 C          1 UNL1 0.000
    40 N       6.222774     0.507888     0.649453 N          1 UNL1 0.000
    41 O       6.791348     1.432017     1.248225 O          1 UNL1 0.000
    42 O       6.799601    -0.408424     0.047223 O          1 UNL1 0.000
    43 H       2.129284     2.629173     0.925919 H          1 UNL1 0.000
    44 H       4.591169     2.649314     0.924453 H          1 UNL1 0.000
    45 H       4.612340    -1.649243     0.378740 H          1 UNL1 0.000
    46 H       2.149579    -1.655662     0.387357 H          1 UNL1 0.000
@<TRIPOS>BOND
     1      1      2   2
     2      2      3   1
     3      3      4   2
     4      4      5   1
     5      5      6   2
     6      6      1   1
     7      4      7   1
     8      7      8   1
     9      8      9   2
    10      9     10   1
    11     10     11   2
    12     11     12   1
    13     12     13   2
    14     13      8   1
    15      3     14   1
    16      9     14   1
    17     15     16   2
    18     16     17   1
    19     17     18   2
    20     18     19   1
    21     19     20   1
    22     20     15   1
    23     19     21   2
    24     21     22   1
    25     22     23   1
    26     23     20   2
    27      7     15   1
    28      1     24   1
    29      2     25   1
    30      5     26   1
    31      6     27   1
    32     10     28   1
    33     11     29   1
    34     12     30   1
    35     13     31   1
    36     16     32   1
    37     17     33   1
    38     34     35   2
    39     35     36   1
    40     36     37   2
    41     37     38   1
    42     38     39   2
    43     39     34   1
    44     40     41   2
    45     40     42   1
    46     37     40   1
    47     35     43   1
    48     36     44   1
    49     38     45   1
    50     39     46   1
    51     18     34   1
