# Produced with molli package
@<TRIPOS>MOLECULE
I_8_Q
42 47 0 0 0
SMALL
USER_CHARGES

@<TRIPOS>ATOM
     1 C      -6.187279     4.071191     0.483389 C          1 UNL1 0.000
     2 C      -6.807093     2.825484     0.438402 C          1 UNL1 0.000
     3 C      -6.036955     1.657959     0.460479 C          1 UNL1 0.000
     4 C      -4.635036     1.710268     0.531164 C          1 UNL1 0.000
     5 C      -4.029937     2.979074     0.567821 C          1 UNL1 0.000
     6 C      -4.799148     4.147825     0.546778 C          1 UNL1 0.000
     7 N      -3.887986     0.486717     0.543938 N          1 UNL1 0.000
     8 C      -4.627180    -0.741245     0.513278 C          1 UNL1 0.000
     9 C      -6.029282    -0.696674     0.439717 C          1 UNL1 0.000
    10 C      -6.792232    -1.868564     0.408395 C          1 UNL1 0.000
    11 C      -6.165296    -3.110615     0.455251 C          1 UNL1 0.000
    12 C      -4.777557    -3.179252     0.536418 C          1 UNL1 0.000
    13 C      -4.015352    -2.006193     0.567378 C          1 UNL1 0.000
    14 O      -6.743267     0.478726     0.400812 O          1 UNL1 0.000
    15 C      -2.465687     0.490089     0.646237 C          1 UNL1 0.000
    16 C      -1.668115     0.264715    -0.500868 C          1 UNL1 0.000
    17 C      -0.253891     0.252428    -0.484722 C          1 UNL1 0.000
    18 C       0.520152     0.484875     0.676635 C          1 UNL1 0.000
    19 C      -0.224965     0.713484     1.868286 C          1 UNL1 0.000
    20 C      -1.739283     0.710660     1.856192 C          1 UNL1 0.000
    21 N       0.277891     0.945004     3.096004 N          1 UNL1 0.000
    22 S      -1.008650     1.103888     4.126853 S          1 UNL1 0.000
    23 N      -2.269473     0.930147     3.071307 N          1 UNL1 0.000
    24 H      -6.785026     4.978622     0.468676 H          1 UNL1 0.000
    25 H      -7.890325     2.758618     0.386490 H          1 UNL1 0.000
    26 H      -2.950661     3.084728     0.615837 H          1 UNL1 0.000
    27 H      -4.309618     5.117994     0.581797 H          1 UNL1 0.000
    28 H      -7.875662    -1.807855     0.352697 H          1 UNL1 0.000
    29 H      -6.757601    -4.021531     0.434677 H          1 UNL1 0.000
    30 H      -4.282943    -4.146512     0.580951 H          1 UNL1 0.000
    31 H      -2.936511    -2.105525     0.642463 H          1 UNL1 0.000
    32 H      -2.172759     0.089651    -1.453077 H          1 UNL1 0.000
    33 H       0.266652     0.057092    -1.424871 H          1 UNL1 0.000
    34 C       1.977361     0.464539     0.673632 C          1 UNL1 0.000
    35 N       2.553686    -0.616670     0.084042 N          1 UNL1 0.000
    36 C       3.907353    -0.646196     0.093204 C          1 UNL1 0.000
    37 C       4.671800     0.374165     0.631368 C          1 UNL1 0.000
    38 N       4.119030     1.470494     1.191773 N          1 UNL1 0.000
    39 C       2.761790     1.486251     1.209206 C          1 UNL1 0.000
    40 H       4.366055    -1.524586    -0.345966 H          1 UNL1 0.000
    41 H       5.754993     0.335771     0.626932 H          1 UNL1 0.000
    42 H       2.318798     2.366651     1.663314 H          1 UNL1 0.000
@<TRIPOS>BOND
     1      1      2   2
     2      2      3   1
     3      3      4   2
     4      4      5   1
     5      5      6   2
     6      6      1   1
     7      4      7   1
     8      7      8   1
     9      8      9   2
    10      9     10   1
    11     10     11   2
    12     11     12   1
    13     12     13   2
    14     13      8   1
    15      3     14   1
    16      9     14   1
    17     15     16   2
    18     16     17   1
    19     17     18   2
    20     18     19   1
    21     19     20   1
    22     20     15   1
    23     19     21   2
    24     21     22   1
    25     22     23   1
    26     23     20   2
    27      7     15   1
    28      1     24   1
    29      2     25   1
    30      5     26   1
    31      6     27   1
    32     10     28   1
    33     11     29   1
    34     12     30   1
    35     13     31   1
    36     16     32   1
    37     17     33   1
    38     34     35   2
    39     35     36   1
    40     36     37   2
    41     37     38   1
    42     38     39   2
    43     39     34   1
    44     36     40   1
    45     37     41   1
    46     39     42   1
    47     18     34   1
