# Produced with molli package
@<TRIPOS>MOLECULE
I_8_N
41 46 0 0 0
SMALL
USER_CHARGES

@<TRIPOS>ATOM
     1 C      -6.114564     4.187970     0.455048 C          1 UNL1 0.000
     2 C      -6.768562     2.959693     0.412735 C          1 UNL1 0.000
     3 C      -6.031299     1.771735     0.450303 C          1 UNL1 0.000
     4 C      -4.629040     1.786451     0.532555 C          1 UNL1 0.000
     5 C      -3.988900     3.037597     0.571772 C          1 UNL1 0.000
     6 C      -4.725433     4.226779     0.534074 C          1 UNL1 0.000
     7 N      -3.916583     0.543509     0.560276 N          1 UNL1 0.000
     8 C      -4.687295    -0.664075     0.527776 C          1 UNL1 0.000
     9 C      -6.087072    -0.582687     0.444216 C          1 UNL1 0.000
    10 C      -6.879779    -1.734340     0.406886 C          1 UNL1 0.000
    11 C      -6.285110    -2.992246     0.455283 C          1 UNL1 0.000
    12 C      -4.899924    -3.096968     0.543179 C          1 UNL1 0.000
    13 C      -4.107860    -1.944109     0.580535 C          1 UNL1 0.000
    14 O      -6.769033     0.611421     0.395838 O          1 UNL1 0.000
    15 C      -2.494322     0.508965     0.655174 C          1 UNL1 0.000
    16 C      -1.709844     0.373047    -0.519546 C          1 UNL1 0.000
    17 C      -0.297600     0.328411    -0.522160 C          1 UNL1 0.000
    18 C       0.464595     0.417358     0.656613 C          1 UNL1 0.000
    19 C      -0.246633     0.560334     1.880930 C          1 UNL1 0.000
    20 C      -1.760148     0.604622     1.877858 C          1 UNL1 0.000
    21 N       0.272683     0.665080     3.117113 N          1 UNL1 0.000
    22 S      -1.003477     0.796083     4.165828 S          1 UNL1 0.000
    23 N      -2.278494     0.736424     3.111909 N          1 UNL1 0.000
    24 H      -6.686793     5.111481     0.427862 H          1 UNL1 0.000
    25 H      -7.852725     2.922485     0.351395 H          1 UNL1 0.000
    26 H      -2.907651     3.112495     0.635634 H          1 UNL1 0.000
    27 H      -4.209938     5.183410     0.569225 H          1 UNL1 0.000
    28 H      -7.960867    -1.645753     0.343629 H          1 UNL1 0.000
    29 H      -6.900669    -3.887521     0.429265 H          1 UNL1 0.000
    30 H      -4.431105    -4.076987     0.587369 H          1 UNL1 0.000
    31 H      -3.032168    -2.069972     0.658137 H          1 UNL1 0.000
    32 H      -2.229050     0.302104    -1.477142 H          1 UNL1 0.000
    33 H       0.214544     0.226348    -1.479844 H          1 UNL1 0.000
    34 C       1.909657     0.378094     0.636722 C          1 UNL1 0.000
    35 C       2.592544    -0.817426     0.536787 C          1 UNL1 0.000
    36 S       4.290365    -0.594199     0.519624 S          1 UNL1 0.000
    37 C       4.123612     1.103393     0.646839 C          1 UNL1 0.000
    38 C       2.802662     1.491287     0.701837 C          1 UNL1 0.000
    39 H       2.185589    -1.818058     0.479776 H          1 UNL1 0.000
    40 H       5.001121     1.734460     0.678311 H          1 UNL1 0.000
    41 H       2.493101     2.525908     0.787665 H          1 UNL1 0.000
@<TRIPOS>BOND
     1      1      2   2
     2      2      3   1
     3      3      4   2
     4      4      5   1
     5      5      6   2
     6      6      1   1
     7      4      7   1
     8      7      8   1
     9      8      9   2
    10      9     10   1
    11     10     11   2
    12     11     12   1
    13     12     13   2
    14     13      8   1
    15      3     14   1
    16      9     14   1
    17     15     16   2
    18     16     17   1
    19     17     18   2
    20     18     19   1
    21     19     20   1
    22     20     15   1
    23     19     21   2
    24     21     22   1
    25     22     23   1
    26     23     20   2
    27      7     15   1
    28      1     24   1
    29      2     25   1
    30      5     26   1
    31      6     27   1
    32     10     28   1
    33     11     29   1
    34     12     30   1
    35     13     31   1
    36     16     32   1
    37     17     33   1
    38     34     35   2
    39     35     36   1
    40     36     37   1
    41     37     38   2
    42     38     34   1
    43     35     39   1
    44     37     40   1
    45     38     41   1
    46     18     34   1
