# Produced with molli package
@<TRIPOS>MOLECULE
I_8_R
45 50 0 0 0
SMALL
USER_CHARGES

@<TRIPOS>ATOM
     1 C      -6.082161     4.003942     0.629768 C          1 UNL1 0.000
     2 C      -6.700726     2.757934     0.572258 C          1 UNL1 0.000
     3 C      -5.927918     1.592985     0.526915 C          1 UNL1 0.000
     4 C      -4.524661     1.648836     0.539956 C          1 UNL1 0.000
     5 C      -3.920758     2.917818     0.591041 C          1 UNL1 0.000
     6 C      -4.692701     4.083846     0.637882 C          1 UNL1 0.000
     7 N      -3.774353     0.428499     0.489839 N          1 UNL1 0.000
     8 C      -4.509690    -0.801210     0.467190 C          1 UNL1 0.000
     9 C      -5.913840    -0.760808     0.455412 C          1 UNL1 0.000
    10 C      -6.673302    -1.935043     0.437557 C          1 UNL1 0.000
    11 C      -6.040255    -3.174972     0.434280 C          1 UNL1 0.000
    12 C      -4.649868    -3.239166     0.448779 C          1 UNL1 0.000
    13 C      -3.890949    -2.063757     0.465666 C          1 UNL1 0.000
    14 O      -6.632462     0.412640     0.467221 O          1 UNL1 0.000
    15 C      -2.351676     0.435548     0.573308 C          1 UNL1 0.000
    16 C      -1.567851     0.329827    -0.601847 C          1 UNL1 0.000
    17 C      -0.153575     0.343575    -0.606227 C          1 UNL1 0.000
    18 C       0.624489     0.482962     0.563768 C          1 UNL1 0.000
    19 C      -0.102262     0.586149     1.784220 C          1 UNL1 0.000
    20 C      -1.614005     0.555405     1.790162 C          1 UNL1 0.000
    21 N       0.417235     0.723018     3.018504 N          1 UNL1 0.000
    22 S      -0.857112     0.757997     4.077175 S          1 UNL1 0.000
    23 N      -2.130986     0.655396     3.027431 N          1 UNL1 0.000
    24 H      -6.682240     4.909155     0.669137 H          1 UNL1 0.000
    25 H      -7.785045     2.688876     0.565264 H          1 UNL1 0.000
    26 H      -2.840516     3.024558     0.599005 H          1 UNL1 0.000
    27 H      -4.204752     5.054329     0.683464 H          1 UNL1 0.000
    28 H      -7.758335    -1.878135     0.432088 H          1 UNL1 0.000
    29 H      -6.629676    -4.087966     0.425465 H          1 UNL1 0.000
    30 H      -4.150517    -4.205037     0.451892 H          1 UNL1 0.000
    31 H      -2.809269    -2.158854     0.484776 H          1 UNL1 0.000
    32 H      -2.085216     0.233480    -1.558160 H          1 UNL1 0.000
    33 H       0.358827     0.245716    -1.565156 H          1 UNL1 0.000
    34 C       2.078125     0.509846     0.555548 C          1 UNL1 0.000
    35 N       2.683563    -0.670131     0.258271 N          1 UNL1 0.000
    36 C       4.039112    -0.702631     0.287052 C          1 UNL1 0.000
    37 C       4.809644     0.410368     0.574140 C          1 UNL1 0.000
    38 C       4.189777     1.628516     0.840792 C          1 UNL1 0.000
    39 C       2.796897     1.675845     0.831133 C          1 UNL1 0.000
    40 N       6.250907     0.292060     0.599819 N          1 UNL1 0.000
    41 O       6.861403     0.965147     1.441431 O          1 UNL1 0.000
    42 O       6.774363    -0.469021    -0.224185 O          1 UNL1 0.000
    43 H       4.477684    -1.675789     0.080811 H          1 UNL1 0.000
    44 H       4.765892     2.524334     1.057999 H          1 UNL1 0.000
    45 H       2.280166     2.607309     1.044948 H          1 UNL1 0.000
@<TRIPOS>BOND
     1      1      2   2
     2      2      3   1
     3      3      4   2
     4      4      5   1
     5      5      6   2
     6      6      1   1
     7      4      7   1
     8      7      8   1
     9      8      9   2
    10      9     10   1
    11     10     11   2
    12     11     12   1
    13     12     13   2
    14     13      8   1
    15      3     14   1
    16      9     14   1
    17     15     16   2
    18     16     17   1
    19     17     18   2
    20     18     19   1
    21     19     20   1
    22     20     15   1
    23     19     21   2
    24     21     22   1
    25     22     23   1
    26     23     20   2
    27      7     15   1
    28      1     24   1
    29      2     25   1
    30      5     26   1
    31      6     27   1
    32     10     28   1
    33     11     29   1
    34     12     30   1
    35     13     31   1
    36     16     32   1
    37     17     33   1
    38     34     35   2
    39     35     36   1
    40     36     37   2
    41     37     38   1
    42     38     39   2
    43     39     34   1
    44     40     41   2
    45     40     42   1
    46     37     40   1
    47     36     43   1
    48     38     44   1
    49     39     45   1
    50     18     34   1
