# Produced with molli package
@<TRIPOS>MOLECULE
I_8_M
45 50 0 0 0
SMALL
USER_CHARGES

@<TRIPOS>ATOM
     1 C      -6.149890     4.073524     0.495370 C          1 UNL1 0.000
     2 C      -6.775449     2.829739     0.499632 C          1 UNL1 0.000
     3 C      -6.009196     1.659908     0.480087 C          1 UNL1 0.000
     4 C      -4.605667     1.708774     0.460645 C          1 UNL1 0.000
     5 C      -3.994548     2.975151     0.452064 C          1 UNL1 0.000
     6 C      -4.760145     4.146127     0.468938 C          1 UNL1 0.000
     7 N      -3.861851     0.483681     0.451462 N          1 UNL1 0.000
     8 C      -4.603462    -0.742031     0.484274 C          1 UNL1 0.000
     9 C      -6.007441    -0.694841     0.496060 C          1 UNL1 0.000
    10 C      -6.772786    -1.865119     0.523635 C          1 UNL1 0.000
    11 C      -6.145850    -3.107976     0.540000 C          1 UNL1 0.000
    12 C      -4.755669    -3.178957     0.527686 C          1 UNL1 0.000
    13 C      -3.990853    -2.007361     0.499221 C          1 UNL1 0.000
    14 O      -6.720278     0.482060     0.484852 O          1 UNL1 0.000
    15 C      -2.439575     0.488339     0.544615 C          1 UNL1 0.000
    16 C      -1.649230     0.521683    -0.630152 C          1 UNL1 0.000
    17 C      -0.235152     0.541762    -0.625349 C          1 UNL1 0.000
    18 C       0.537502     0.532591     0.556377 C          1 UNL1 0.000
    19 C      -0.196276     0.497000     1.778436 C          1 UNL1 0.000
    20 C      -1.709500     0.473379     1.772186 C          1 UNL1 0.000
    21 N       0.316863     0.480518     3.021981 N          1 UNL1 0.000
    22 S      -0.964687     0.438499     4.071543 S          1 UNL1 0.000
    23 N      -2.233876     0.441205     3.009949 N          1 UNL1 0.000
    24 H      -6.744738     4.982834     0.515025 H          1 UNL1 0.000
    25 H      -7.859908     2.766317     0.522619 H          1 UNL1 0.000
    26 H      -2.913629     3.075942     0.435852 H          1 UNL1 0.000
    27 H      -4.266920     5.115039     0.465889 H          1 UNL1 0.000
    28 H      -7.857490    -1.802606     0.535841 H          1 UNL1 0.000
    29 H      -6.739958    -4.017670     0.565083 H          1 UNL1 0.000
    30 H      -4.261660    -4.147367     0.543258 H          1 UNL1 0.000
    31 H      -2.909673    -2.106448     0.492016 H          1 UNL1 0.000
    32 H      -2.161738     0.535532    -1.593808 H          1 UNL1 0.000
    33 H       0.278982     0.570409    -1.587812 H          1 UNL1 0.000
    34 C       1.995940     0.558008     0.543103 C          1 UNL1 0.000
    35 C       2.731061    -0.628337     0.398852 C          1 UNL1 0.000
    36 C       4.129203    -0.604905     0.370972 C          1 UNL1 0.000
    37 C       4.812651     0.608946     0.484386 C          1 UNL1 0.000
    38 C       4.091458     1.797117     0.630344 C          1 UNL1 0.000
    39 C       2.693373     1.770049     0.659921 C          1 UNL1 0.000
    40 C       6.245461     0.635221     0.447566 C          1 UNL1 0.000
    41 N       7.405491     0.656565     0.410742 N          1 UNL1 0.000
    42 H       2.215818    -1.583737     0.315105 H          1 UNL1 0.000
    43 H       4.676466    -1.539549     0.262715 H          1 UNL1 0.000
    44 H       4.608780     2.750199     0.724285 H          1 UNL1 0.000
    45 H       2.148268     2.704862     0.779991 H          1 UNL1 0.000
@<TRIPOS>BOND
     1      1      2   2
     2      2      3   1
     3      3      4   2
     4      4      5   1
     5      5      6   2
     6      6      1   1
     7      4      7   1
     8      7      8   1
     9      8      9   2
    10      9     10   1
    11     10     11   2
    12     11     12   1
    13     12     13   2
    14     13      8   1
    15      3     14   1
    16      9     14   1
    17     15     16   2
    18     16     17   1
    19     17     18   2
    20     18     19   1
    21     19     20   1
    22     20     15   1
    23     19     21   2
    24     21     22   1
    25     22     23   1
    26     23     20   2
    27      7     15   1
    28      1     24   1
    29      2     25   1
    30      5     26   1
    31      6     27   1
    32     10     28   1
    33     11     29   1
    34     12     30   1
    35     13     31   1
    36     16     32   1
    37     17     33   1
    38     34     35   2
    39     35     36   1
    40     36     37   2
    41     37     38   1
    42     38     39   2
    43     39     34   1
    44     40     41   3
    45     37     40   1
    46     35     42   1
    47     36     43   1
    48     38     44   1
    49     39     45   1
    50     18     34   1
