# Produced with molli package
@<TRIPOS>MOLECULE
I_8_O
43 48 0 0 0
SMALL
USER_CHARGES

@<TRIPOS>ATOM
     1 C      -6.245863     4.074500     0.462868 C          1 UNL1 0.000
     2 C      -6.860830     2.826447     0.416761 C          1 UNL1 0.000
     3 C      -6.087027     1.661581     0.453126 C          1 UNL1 0.000
     4 C      -4.686169     1.718835     0.539104 C          1 UNL1 0.000
     5 C      -4.086102     2.990027     0.576416 C          1 UNL1 0.000
     6 C      -4.858884     4.156116     0.541546 C          1 UNL1 0.000
     7 N      -3.935241     0.497597     0.564368 N          1 UNL1 0.000
     8 C      -4.670093    -0.732733     0.528873 C          1 UNL1 0.000
     9 C      -6.071337    -0.693063     0.438797 C          1 UNL1 0.000
    10 C      -6.830012    -1.867529     0.400115 C          1 UNL1 0.000
    11 C      -6.199578    -3.107380     0.457529 C          1 UNL1 0.000
    12 C      -4.812826    -3.171111     0.557391 C          1 UNL1 0.000
    13 C      -4.054907    -1.995442     0.595241 C          1 UNL1 0.000
    14 O      -6.788796     0.479849     0.389074 O          1 UNL1 0.000
    15 C      -2.511212     0.507075     0.649168 C          1 UNL1 0.000
    16 C      -1.729324     0.261859    -0.505120 C          1 UNL1 0.000
    17 C      -0.315750     0.265010    -0.510336 C          1 UNL1 0.000
    18 C       0.473968     0.532900     0.632042 C          1 UNL1 0.000
    19 C      -0.252761     0.778682     1.833212 C          1 UNL1 0.000
    20 C      -1.768368     0.759883     1.842340 C          1 UNL1 0.000
    21 N       0.263553     1.043309     3.048100 N          1 UNL1 0.000
    22 S      -1.009827     1.209797     4.093159 S          1 UNL1 0.000
    23 N      -2.284154     1.002101     3.060894 N          1 UNL1 0.000
    24 H      -6.846394     4.979797     0.436870 H          1 UNL1 0.000
    25 H      -7.943088     2.755541     0.352209 H          1 UNL1 0.000
    26 H      -3.007812     3.099833     0.636174 H          1 UNL1 0.000
    27 H      -4.372701     5.127868     0.577647 H          1 UNL1 0.000
    28 H      -7.912781    -1.810509     0.330204 H          1 UNL1 0.000
    29 H      -6.788448    -4.020337     0.431056 H          1 UNL1 0.000
    30 H      -4.315393    -4.136466     0.611271 H          1 UNL1 0.000
    31 H      -2.976784    -2.090531     0.686236 H          1 UNL1 0.000
    32 H      -2.245887     0.061452    -1.445367 H          1 UNL1 0.000
    33 H       0.194304     0.055099    -1.453172 H          1 UNL1 0.000
    34 C       1.932216     0.538737     0.595145 C          1 UNL1 0.000
    35 N       2.502073    -0.574770     0.067742 N          1 UNL1 0.000
    36 C       3.851913    -0.618890     0.015553 C          1 UNL1 0.000
    37 C       4.674804     0.412943     0.432133 C          1 UNL1 0.000
    38 C       4.079568     1.559844     0.940095 C          1 UNL1 0.000
    39 C       2.691270     1.624938     1.028271 C          1 UNL1 0.000
    40 H       4.268561    -1.539368    -0.383365 H          1 UNL1 0.000
    41 H       5.753010     0.324691     0.362830 H          1 UNL1 0.000
    42 H       4.688297     2.396500     1.270524 H          1 UNL1 0.000
    43 H       2.213967     2.515032     1.426273 H          1 UNL1 0.000
@<TRIPOS>BOND
     1      1      2   2
     2      2      3   1
     3      3      4   2
     4      4      5   1
     5      5      6   2
     6      6      1   1
     7      4      7   1
     8      7      8   1
     9      8      9   2
    10      9     10   1
    11     10     11   2
    12     11     12   1
    13     12     13   2
    14     13      8   1
    15      3     14   1
    16      9     14   1
    17     15     16   2
    18     16     17   1
    19     17     18   2
    20     18     19   1
    21     19     20   1
    22     20     15   1
    23     19     21   2
    24     21     22   1
    25     22     23   1
    26     23     20   2
    27      7     15   1
    28      1     24   1
    29      2     25   1
    30      5     26   1
    31      6     27   1
    32     10     28   1
    33     11     29   1
    34     12     30   1
    35     13     31   1
    36     16     32   1
    37     17     33   1
    38     34     35   2
    39     35     36   1
    40     36     37   2
    41     37     38   1
    42     38     39   2
    43     39     34   1
    44     36     40   1
    45     37     41   1
    46     38     42   1
    47     39     43   1
    48     18     34   1
