# Produced with molli package
@<TRIPOS>MOLECULE
I_8_S
49 54 0 0 0
SMALL
USER_CHARGES

@<TRIPOS>ATOM
     1 C      -6.036197     4.130935     0.387568 C          1 UNL1 0.000
     2 C      -6.680251     2.896656     0.385226 C          1 UNL1 0.000
     3 C      -5.931794     1.715760     0.423293 C          1 UNL1 0.000
     4 C      -4.527967     1.743754     0.463385 C          1 UNL1 0.000
     5 C      -3.898087     3.000798     0.467351 C          1 UNL1 0.000
     6 C      -4.645845     4.182872     0.429030 C          1 UNL1 0.000
     7 N      -3.803699     0.507709     0.499099 N          1 UNL1 0.000
     8 C      -4.564316    -0.706309     0.521793 C          1 UNL1 0.000
     9 C      -5.966835    -0.638295     0.479707 C          1 UNL1 0.000
    10 C      -6.750350    -1.796744     0.494087 C          1 UNL1 0.000
    11 C      -6.143392    -3.048372     0.550025 C          1 UNL1 0.000
    12 C      -4.755013    -3.139931     0.591200 C          1 UNL1 0.000
    13 C      -3.972111    -1.980178     0.576909 C          1 UNL1 0.000
    14 O      -6.660495     0.548597     0.419820 O          1 UNL1 0.000
    15 C      -2.380532     0.489705     0.577098 C          1 UNL1 0.000
    16 C      -1.603588     0.515402    -0.607262 C          1 UNL1 0.000
    17 C      -0.189308     0.510707    -0.620717 C          1 UNL1 0.000
    18 C       0.597569     0.475715     0.550891 C          1 UNL1 0.000
    19 C      -0.122160     0.444510     1.781741 C          1 UNL1 0.000
    20 C      -1.635691     0.453251     1.794882 C          1 UNL1 0.000
    21 N       0.405819     0.408709     3.018661 N          1 UNL1 0.000
    22 S      -0.862338     0.399452     4.084442 S          1 UNL1 0.000
    23 N      -2.144895     0.426576     3.039145 N          1 UNL1 0.000
    24 H      -6.617170     5.049016     0.360992 H          1 UNL1 0.000
    25 H      -7.765416     2.849385     0.357197 H          1 UNL1 0.000
    26 H      -2.816285     3.085768     0.505696 H          1 UNL1 0.000
    27 H      -4.138274     5.144383     0.435678 H          1 UNL1 0.000
    28 H      -7.833641    -1.718203     0.463538 H          1 UNL1 0.000
    29 H      -6.751667    -3.948872     0.563660 H          1 UNL1 0.000
    30 H      -4.276450    -4.115054     0.637601 H          1 UNL1 0.000
    31 H      -2.893121    -2.095206     0.613515 H          1 UNL1 0.000
    32 H      -2.127949     0.542650    -1.564313 H          1 UNL1 0.000
    33 H       0.312775     0.535448    -1.589600 H          1 UNL1 0.000
    34 C       2.056183     0.485443     0.523490 C          1 UNL1 0.000
    35 C       2.759049     1.690105     0.388696 C          1 UNL1 0.000
    36 C       4.157026     1.702281     0.362441 C          1 UNL1 0.000
    37 C       4.882239     0.508292     0.465191 C          1 UNL1 0.000
    38 C       4.189000    -0.697937     0.608504 C          1 UNL1 0.000
    39 C       2.788032    -0.706160     0.632728 C          1 UNL1 0.000
    40 C       6.373449     0.583152     0.425118 C          1 UNL1 0.000
    41 C       7.184547    -0.684249     0.355032 C          1 UNL1 0.000
    42 O       6.928874     1.681340     0.466236 O          1 UNL1 0.000
    43 H       2.222546     2.634377     0.316189 H          1 UNL1 0.000
    44 H       4.677617     2.653882     0.266101 H          1 UNL1 0.000
    45 H       4.706749    -1.645973     0.716625 H          1 UNL1 0.000
    46 H       2.266893    -1.655134     0.749216 H          1 UNL1 0.000
    47 H       8.135819    -0.465600    -0.140980 H          1 UNL1 0.000
    48 H       6.689197    -1.452747    -0.241888 H          1 UNL1 0.000
    49 H       7.381624    -1.050546     1.365432 H          1 UNL1 0.000
@<TRIPOS>BOND
     1      1      2   2
     2      2      3   1
     3      3      4   2
     4      4      5   1
     5      5      6   2
     6      6      1   1
     7      4      7   1
     8      7      8   1
     9      8      9   2
    10      9     10   1
    11     10     11   2
    12     11     12   1
    13     12     13   2
    14     13      8   1
    15      3     14   1
    16      9     14   1
    17     15     16   2
    18     16     17   1
    19     17     18   2
    20     18     19   1
    21     19     20   1
    22     20     15   1
    23     19     21   2
    24     21     22   1
    25     22     23   1
    26     23     20   2
    27      7     15   1
    28      1     24   1
    29      2     25   1
    30      5     26   1
    31      6     27   1
    32     10     28   1
    33     11     29   1
    34     12     30   1
    35     13     31   1
    36     16     32   1
    37     17     33   1
    38     34     35   2
    39     35     36   1
    40     36     37   2
    41     37     38   1
    42     38     39   2
    43     39     34   1
    44     37     40   1
    45     40     41   1
    46     40     42   2
    47     35     43   1
    48     36     44   1
    49     38     45   1
    50     39     46   1
    51     41     47   1
    52     41     48   1
    53     41     49   1
    54     18     34   1
