# Produced with molli package
@<TRIPOS>MOLECULE
I_9_K
45 49 0 0 0
SMALL
USER_CHARGES

@<TRIPOS>ATOM
     1 C      -5.479051     4.131108     1.763079 C          1 UNL1 0.000
     2 C      -6.078328     2.874327     1.777069 C          1 UNL1 0.000
     3 C      -5.287644     1.721099     1.750448 C          1 UNL1 0.000
     4 C      -3.885755     1.800500     1.710029 C          1 UNL1 0.000
     5 C      -3.301216     3.078859     1.695190 C          1 UNL1 0.000
     6 C      -4.091208     4.233273     1.721738 C          1 UNL1 0.000
     7 N      -3.116285     0.591983     1.686630 N          1 UNL1 0.000
     8 C      -3.831433    -0.650083     1.710795 C          1 UNL1 0.000
     9 C      -5.235181    -0.633673     1.751562 C          1 UNL1 0.000
    10 C      -5.973088    -1.821452     1.779879 C          1 UNL1 0.000
    11 C      -5.318027    -3.050219     1.767340 C          1 UNL1 0.000
    12 C      -3.927168    -3.090066     1.725636 C          1 UNL1 0.000
    13 C      -3.190214    -1.901290     1.697382 C          1 UNL1 0.000
    14 O      -5.972962     0.527802     1.768751 O          1 UNL1 0.000
    15 C      -1.689108     0.621388     1.680092 C          1 UNL1 0.000
    16 C      -0.978672     0.636060     2.887414 C          1 UNL1 0.000
    17 C       0.414341     0.643921     2.881816 C          1 UNL1 0.000
    18 C       1.106017     0.634923     1.668845 C          1 UNL1 0.000
    19 C       0.417985     0.624778     0.444726 C          1 UNL1 0.000
    20 C      -0.985226     0.621280     0.465619 C          1 UNL1 0.000
    21 H      -6.092890     5.027718     1.784759 H          1 UNL1 0.000
    22 H      -7.160987     2.788136     1.809703 H          1 UNL1 0.000
    23 H      -2.221698     3.197919     1.663928 H          1 UNL1 0.000
    24 H      -3.618404     5.212247     1.710931 H          1 UNL1 0.000
    25 H      -7.058503    -1.784190     1.812666 H          1 UNL1 0.000
    26 H      -5.890776    -3.973569     1.790173 H          1 UNL1 0.000
    27 H      -3.410465    -4.046600     1.715471 H          1 UNL1 0.000
    28 H      -2.106474    -1.972405     1.665400 H          1 UNL1 0.000
    29 H      -1.518257     0.637186     3.831460 H          1 UNL1 0.000
    30 H       0.961498     0.655462     3.820885 H          1 UNL1 0.000
    31 H       2.194550     0.643768     1.682256 H          1 UNL1 0.000
    32 H      -1.545484     0.603823    -0.467382 H          1 UNL1 0.000
    33 C       1.152149     0.612506    -0.825170 C          1 UNL1 0.000
    34 C       1.128275     1.728692    -1.679109 C          1 UNL1 0.000
    35 C       1.836695     1.726196    -2.884395 C          1 UNL1 0.000
    36 C       2.577131     0.593931    -3.240592 C          1 UNL1 0.000
    37 C       2.612679    -0.530636    -2.409872 C          1 UNL1 0.000
    38 C       1.899916    -0.514963    -1.207755 C          1 UNL1 0.000
    39 N       3.327381     0.587563    -4.496977 N          1 UNL1 0.000
    40 O       4.292831    -0.185578    -4.583589 O          1 UNL1 0.000
    41 O       2.952554     1.355631    -5.393278 O          1 UNL1 0.000
    42 H       0.561029     2.615417    -1.399065 H          1 UNL1 0.000
    43 H       1.807884     2.606431    -3.523071 H          1 UNL1 0.000
    44 H       3.180253    -1.417667    -2.683253 H          1 UNL1 0.000
    45 H       1.922871    -1.394904    -0.566194 H          1 UNL1 0.000
@<TRIPOS>BOND
     1      1      2   2
     2      2      3   1
     3      3      4   2
     4      4      5   1
     5      5      6   2
     6      6      1   1
     7      4      7   1
     8      7      8   1
     9      8      9   2
    10      9     10   1
    11     10     11   2
    12     11     12   1
    13     12     13   2
    14     13      8   1
    15      3     14   1
    16      9     14   1
    17     15     16   2
    18     16     17   1
    19     17     18   2
    20     18     19   1
    21     19     20   2
    22     20     15   1
    23      7     15   1
    24      1     21   1
    25      2     22   1
    26      5     23   1
    27      6     24   1
    28     10     25   1
    29     11     26   1
    30     12     27   1
    31     13     28   1
    32     16     29   1
    33     17     30   1
    34     18     31   1
    35     20     32   1
    36     33     34   2
    37     34     35   1
    38     35     36   2
    39     36     37   1
    40     37     38   2
    41     38     33   1
    42     39     40   2
    43     39     41   1
    44     36     39   1
    45     34     42   1
    46     35     43   1
    47     37     44   1
    48     38     45   1
    49     19     33   1
