# Produced with molli package
@<TRIPOS>MOLECULE
I_9_M
44 48 0 0 0
SMALL
USER_CHARGES

@<TRIPOS>ATOM
     1 C      -5.309567     4.117595     1.712419 C          1 UNL1 0.000
     2 C      -5.938831     2.878122     1.791880 C          1 UNL1 0.000
     3 C      -5.178889     1.704236     1.770254 C          1 UNL1 0.000
     4 C      -3.778059     1.745196     1.673296 C          1 UNL1 0.000
     5 C      -3.163269     3.006640     1.590782 C          1 UNL1 0.000
     6 C      -3.922641     4.181678     1.609678 C          1 UNL1 0.000
     7 N      -3.039664     0.516829     1.668311 N          1 UNL1 0.000
     8 C      -3.784524    -0.703988     1.769488 C          1 UNL1 0.000
     9 C      -5.185323    -0.649246     1.855824 C          1 UNL1 0.000
    10 C      -5.951669    -1.815114     1.954336 C          1 UNL1 0.000
    11 C      -5.328515    -3.060219     1.969701 C          1 UNL1 0.000
    12 C      -3.941144    -3.138143     1.885795 C          1 UNL1 0.000
    13 C      -3.175843    -1.971239     1.785297 C          1 UNL1 0.000
    14 O      -5.892874     0.530885     1.854492 O          1 UNL1 0.000
    15 C      -1.611639     0.510977     1.656090 C          1 UNL1 0.000
    16 C      -0.899183     0.510408     2.863126 C          1 UNL1 0.000
    17 C       0.493485     0.488833     2.857278 C          1 UNL1 0.000
    18 C       1.183305     0.466079     1.644108 C          1 UNL1 0.000
    19 C       0.493645     0.469893     0.420950 C          1 UNL1 0.000
    20 C      -0.909284     0.495078     0.440510 C          1 UNL1 0.000
    21 H      -5.899341     5.030271     1.730918 H          1 UNL1 0.000
    22 H      -7.020895     2.821440     1.873060 H          1 UNL1 0.000
    23 H      -2.083357     3.096284     1.512050 H          1 UNL1 0.000
    24 H      -3.426503     5.146971     1.545909 H          1 UNL1 0.000
    25 H      -7.034163    -1.747851     2.019981 H          1 UNL1 0.000
    26 H      -5.923309    -3.966527     2.046893 H          1 UNL1 0.000
    27 H      -3.449270    -4.107646     1.897742 H          1 UNL1 0.000
    28 H      -2.096003    -2.071994     1.719188 H          1 UNL1 0.000
    29 H      -1.437824     0.524419     3.807650 H          1 UNL1 0.000
    30 H       1.041407     0.488661     3.795847 H          1 UNL1 0.000
    31 H       2.271813     0.450726     1.654744 H          1 UNL1 0.000
    32 H      -1.468505     0.491421    -0.493099 H          1 UNL1 0.000
    33 C       1.232536     0.444246    -0.844337 C          1 UNL1 0.000
    34 C       1.379320     1.607833    -1.614324 C          1 UNL1 0.000
    35 C       2.114715     1.590512    -2.804197 C          1 UNL1 0.000
    36 C       2.710039     0.404531    -3.243627 C          1 UNL1 0.000
    37 C       2.562146    -0.763508    -2.490591 C          1 UNL1 0.000
    38 C       1.829819    -0.741435    -1.299418 C          1 UNL1 0.000
    39 C       3.474291     0.387285    -4.456367 C          1 UNL1 0.000
    40 N       4.097201     0.373162    -5.435798 N          1 UNL1 0.000
    41 H       0.929572     2.541574    -1.280613 H          1 UNL1 0.000
    42 H       2.222268     2.509042    -3.378228 H          1 UNL1 0.000
    43 H       3.016734    -1.695948    -2.820181 H          1 UNL1 0.000
    44 H       1.725841    -1.658866    -0.722225 H          1 UNL1 0.000
@<TRIPOS>BOND
     1      1      2   2
     2      2      3   1
     3      3      4   2
     4      4      5   1
     5      5      6   2
     6      6      1   1
     7      4      7   1
     8      7      8   1
     9      8      9   2
    10      9     10   1
    11     10     11   2
    12     11     12   1
    13     12     13   2
    14     13      8   1
    15      3     14   1
    16      9     14   1
    17     15     16   2
    18     16     17   1
    19     17     18   2
    20     18     19   1
    21     19     20   2
    22     20     15   1
    23      7     15   1
    24      1     21   1
    25      2     22   1
    26      5     23   1
    27      6     24   1
    28     10     25   1
    29     11     26   1
    30     12     27   1
    31     13     28   1
    32     16     29   1
    33     17     30   1
    34     18     31   1
    35     20     32   1
    36     33     34   2
    37     34     35   1
    38     35     36   2
    39     36     37   1
    40     37     38   2
    41     38     33   1
    42     39     40   3
    43     36     39   1
    44     34     41   1
    45     35     42   1
    46     37     43   1
    47     38     44   1
    48     19     33   1
