# Produced with molli package
@<TRIPOS>MOLECULE
I_9_O
42 46 0 0 0
SMALL
USER_CHARGES

@<TRIPOS>ATOM
     1 C      -5.389827     4.088157     1.863997 C          1 UNL1 0.000
     2 C      -6.018976     2.846003     1.869677 C          1 UNL1 0.000
     3 C      -5.256084     1.674600     1.827505 C          1 UNL1 0.000
     4 C      -3.852715     1.720897     1.781450 C          1 UNL1 0.000
     5 C      -3.237932     2.984751     1.773807 C          1 UNL1 0.000
     6 C      -4.000128     4.157316     1.814777 C          1 UNL1 0.000
     7 N      -3.112694     0.494766     1.746794 N          1 UNL1 0.000
     8 C      -3.857706    -0.729839     1.749708 C          1 UNL1 0.000
     9 C      -5.260364    -0.680601     1.794718 C          1 UNL1 0.000
    10 C      -6.026354    -1.850922     1.801014 C          1 UNL1 0.000
    11 C      -5.401096    -3.094625     1.760144 C          1 UNL1 0.000
    12 C      -4.011798    -3.166903     1.712273 C          1 UNL1 0.000
    13 C      -3.246916    -1.995655     1.706798 C          1 UNL1 0.000
    14 O      -5.969847     0.497726     1.837856 O          1 UNL1 0.000
    15 C      -1.685141     0.488323     1.763067 C          1 UNL1 0.000
    16 C      -0.995291     0.423950     2.981210 C          1 UNL1 0.000
    17 C       0.397202     0.385014     2.999125 C          1 UNL1 0.000
    18 C       1.109091     0.400451     1.797835 C          1 UNL1 0.000
    19 C       0.442594     0.466554     0.562362 C          1 UNL1 0.000
    20 C      -0.960312     0.522000     0.562355 C          1 UNL1 0.000
    21 H      -5.981403     4.999134     1.896080 H          1 UNL1 0.000
    22 H      -7.103081     2.785258     1.906773 H          1 UNL1 0.000
    23 H      -2.155748     3.078035     1.731998 H          1 UNL1 0.000
    24 H      -3.502904     5.124121     1.806429 H          1 UNL1 0.000
    25 H      -7.110402    -1.788133     1.837614 H          1 UNL1 0.000
    26 H      -5.995766    -4.004180     1.764580 H          1 UNL1 0.000
    27 H      -3.517889    -4.134752     1.678226 H          1 UNL1 0.000
    28 H      -2.165380    -2.091140     1.666089 H          1 UNL1 0.000
    29 H      -1.551374     0.404300     3.915292 H          1 UNL1 0.000
    30 H       0.927666     0.343354     3.946676 H          1 UNL1 0.000
    31 H       2.196894     0.377053     1.827498 H          1 UNL1 0.000
    32 H      -1.497289     0.580685    -0.382856 H          1 UNL1 0.000
    33 C       1.188852     0.466772    -0.698472 C          1 UNL1 0.000
    34 N       1.088862     1.593706    -1.444733 N          1 UNL1 0.000
    35 C       1.774423     1.629707    -2.608392 C          1 UNL1 0.000
    36 C       2.552127     0.585357    -3.079439 C          1 UNL1 0.000
    37 C       2.635746    -0.568285    -2.310339 C          1 UNL1 0.000
    38 C       1.949371    -0.630214    -1.100574 C          1 UNL1 0.000
    39 H       1.678503     2.553723    -3.171431 H          1 UNL1 0.000
    40 H       3.077536     0.668845    -4.023999 H          1 UNL1 0.000
    41 H       3.227874    -1.413611    -2.648618 H          1 UNL1 0.000
    42 H       1.996786    -1.525410    -0.488884 H          1 UNL1 0.000
@<TRIPOS>BOND
     1      1      2   2
     2      2      3   1
     3      3      4   2
     4      4      5   1
     5      5      6   2
     6      6      1   1
     7      4      7   1
     8      7      8   1
     9      8      9   2
    10      9     10   1
    11     10     11   2
    12     11     12   1
    13     12     13   2
    14     13      8   1
    15      3     14   1
    16      9     14   1
    17     15     16   2
    18     16     17   1
    19     17     18   2
    20     18     19   1
    21     19     20   2
    22     20     15   1
    23      7     15   1
    24      1     21   1
    25      2     22   1
    26      5     23   1
    27      6     24   1
    28     10     25   1
    29     11     26   1
    30     12     27   1
    31     13     28   1
    32     16     29   1
    33     17     30   1
    34     18     31   1
    35     20     32   1
    36     33     34   2
    37     34     35   1
    38     35     36   2
    39     36     37   1
    40     37     38   2
    41     38     33   1
    42     35     39   1
    43     36     40   1
    44     37     41   1
    45     38     42   1
    46     19     33   1
