# Produced with molli package
@<TRIPOS>MOLECULE
I_9_P
47 51 0 0 0
SMALL
USER_CHARGES

@<TRIPOS>ATOM
     1 C      -5.291250     4.072721     1.735116 C          1 UNL1 0.000
     2 C      -5.919941     2.830512     1.759275 C          1 UNL1 0.000
     3 C      -5.156467     1.658789     1.740562 C          1 UNL1 0.000
     4 C      -3.753387     1.704745     1.694721 C          1 UNL1 0.000
     5 C      -3.139011     2.968921     1.670586 C          1 UNL1 0.000
     6 C      -3.901573     4.141806     1.691133 C          1 UNL1 0.000
     7 N      -3.012208     0.478350     1.682146 N          1 UNL1 0.000
     8 C      -3.756108    -0.745998     1.733044 C          1 UNL1 0.000
     9 C      -5.158848    -0.696089     1.779973 C          1 UNL1 0.000
    10 C      -5.924392    -1.865422     1.835863 C          1 UNL1 0.000
    11 C      -5.298262    -3.109200     1.845152 C          1 UNL1 0.000
    12 C      -3.909106    -3.182400     1.794920 C          1 UNL1 0.000
    13 C      -3.144592    -2.012018     1.737561 C          1 UNL1 0.000
    14 O      -5.869639     0.482281     1.775372 O          1 UNL1 0.000
    15 C      -1.584464     0.475490     1.669078 C          1 UNL1 0.000
    16 C      -0.868937     0.425161     2.873035 C          1 UNL1 0.000
    17 C       0.524167     0.406724     2.862195 C          1 UNL1 0.000
    18 C       1.211212     0.435609     1.647110 C          1 UNL1 0.000
    19 C       0.517740     0.488346     0.427771 C          1 UNL1 0.000
    20 C      -0.884901     0.511549     0.452675 C          1 UNL1 0.000
    21 H      -5.883693     4.983668     1.751850 H          1 UNL1 0.000
    22 H      -7.004114     2.769917     1.795119 H          1 UNL1 0.000
    23 H      -2.056992     3.062111     1.638208 H          1 UNL1 0.000
    24 H      -3.405354     5.108996     1.673770 H          1 UNL1 0.000
    25 H      -7.008351    -1.801867     1.872716 H          1 UNL1 0.000
    26 H      -5.892270    -4.018186     1.889935 H          1 UNL1 0.000
    27 H      -3.414724    -4.150702     1.799559 H          1 UNL1 0.000
    28 H      -2.063170    -2.108936     1.696090 H          1 UNL1 0.000
    29 H      -1.405163     0.397686     3.818501 H          1 UNL1 0.000
    30 H       1.074746     0.366892     3.798287 H          1 UNL1 0.000
    31 H       2.299588     0.418526     1.652267 H          1 UNL1 0.000
    32 H      -1.445097     0.544287    -0.479951 H          1 UNL1 0.000
    33 C       1.247214     0.502905    -0.842936 C          1 UNL1 0.000
    34 C       1.412633     1.695532    -1.565753 C          1 UNL1 0.000
    35 C       2.118044     1.706723    -2.772121 C          1 UNL1 0.000
    36 C       2.669911     0.523956    -3.255913 C          1 UNL1 0.000
    37 C       2.494011    -0.674506    -2.571203 C          1 UNL1 0.000
    38 C       1.793624    -0.681714    -1.363342 C          1 UNL1 0.000
    39 O       3.331284     0.515702    -4.453054 O          1 UNL1 0.000
    40 C       4.707066     0.840340    -4.252009 C          1 UNL1 0.000
    41 H       0.989293     2.624305    -1.188986 H          1 UNL1 0.000
    42 H       2.229624     2.631281    -3.330424 H          1 UNL1 0.000
    43 H       2.897499    -1.598247    -2.974711 H          1 UNL1 0.000
    44 H       1.663642    -1.621462    -0.830668 H          1 UNL1 0.000
    45 H       5.225521     0.706784    -5.206264 H          1 UNL1 0.000
    46 H       5.175079     0.174560    -3.517815 H          1 UNL1 0.000
    47 H       4.821129     1.885866    -3.946228 H          1 UNL1 0.000
@<TRIPOS>BOND
     1      1      2   2
     2      2      3   1
     3      3      4   2
     4      4      5   1
     5      5      6   2
     6      6      1   1
     7      4      7   1
     8      7      8   1
     9      8      9   2
    10      9     10   1
    11     10     11   2
    12     11     12   1
    13     12     13   2
    14     13      8   1
    15      3     14   1
    16      9     14   1
    17     15     16   2
    18     16     17   1
    19     17     18   2
    20     18     19   1
    21     19     20   2
    22     20     15   1
    23      7     15   1
    24      1     21   1
    25      2     22   1
    26      5     23   1
    27      6     24   1
    28     10     25   1
    29     11     26   1
    30     12     27   1
    31     13     28   1
    32     16     29   1
    33     17     30   1
    34     18     31   1
    35     20     32   1
    36     33     34   2
    37     34     35   1
    38     35     36   2
    39     36     37   1
    40     37     38   2
    41     38     33   1
    42     39     40   1
    43     36     39   1
    44     34     41   1
    45     35     42   1
    46     37     43   1
    47     38     44   1
    48     40     45   1
    49     40     46   1
    50     40     47   1
    51     19     33   1
