# Produced with molli package
@<TRIPOS>MOLECULE
I_9_R
44 48 0 0 0
SMALL
USER_CHARGES

@<TRIPOS>ATOM
     1 C      -5.363149     4.122547     1.787548 C          1 UNL1 0.000
     2 C      -5.981809     2.875214     1.768284 C          1 UNL1 0.000
     3 C      -5.208519     1.709900     1.752985 C          1 UNL1 0.000
     4 C      -3.805078     1.767491     1.757967 C          1 UNL1 0.000
     5 C      -3.200921     3.036834     1.771843 C          1 UNL1 0.000
     6 C      -3.973380     4.203186     1.788170 C          1 UNL1 0.000
     7 N      -3.053698     0.546917     1.745028 N          1 UNL1 0.000
     8 C      -3.788098    -0.683545     1.730911 C          1 UNL1 0.000
     9 C      -5.192075    -0.645191     1.721500 C          1 UNL1 0.000
    10 C      -5.948923    -1.821167     1.706701 C          1 UNL1 0.000
    11 C      -5.313066    -3.059975     1.705016 C          1 UNL1 0.000
    12 C      -3.922390    -3.121625     1.719347 C          1 UNL1 0.000
    13 C      -3.166399    -1.944526     1.732614 C          1 UNL1 0.000
    14 O      -5.912200     0.527426     1.729643 O          1 UNL1 0.000
    15 C      -1.626337     0.557874     1.738864 C          1 UNL1 0.000
    16 C      -0.913594     0.629579     2.942893 C          1 UNL1 0.000
    17 C       0.480047     0.650147     2.934212 C          1 UNL1 0.000
    18 C       1.170333     0.594514     1.721377 C          1 UNL1 0.000
    19 C       0.478723     0.513257     0.502557 C          1 UNL1 0.000
    20 C      -0.924170     0.500388     0.525443 C          1 UNL1 0.000
    21 H      -5.962973     5.028703     1.799726 H          1 UNL1 0.000
    22 H      -7.066101     2.806032     1.764379 H          1 UNL1 0.000
    23 H      -2.119008     3.140500     1.768241 H          1 UNL1 0.000
    24 H      -3.484371     5.174225     1.799894 H          1 UNL1 0.000
    25 H      -7.034100    -1.766586     1.698537 H          1 UNL1 0.000
    26 H      -5.900884    -3.974047     1.695377 H          1 UNL1 0.000
    27 H      -3.421199    -4.086370     1.722501 H          1 UNL1 0.000
    28 H      -2.083724    -2.031992     1.748991 H          1 UNL1 0.000
    29 H      -1.451652     0.676027     3.886678 H          1 UNL1 0.000
    30 H       1.028281     0.715567     3.870475 H          1 UNL1 0.000
    31 H       2.258447     0.623343     1.727197 H          1 UNL1 0.000
    32 H      -1.482970     0.456712    -0.407547 H          1 UNL1 0.000
    33 C       1.202518     0.440462    -0.765039 C          1 UNL1 0.000
    34 N       1.517111     1.631041    -1.335296 N          1 UNL1 0.000
    35 C       2.180277     1.605447    -2.518555 C          1 UNL1 0.000
    36 C       2.544026     0.430000    -3.154924 C          1 UNL1 0.000
    37 C       2.221862    -0.791098    -2.561559 C          1 UNL1 0.000
    38 C       1.539491    -0.782964    -1.345062 C          1 UNL1 0.000
    39 N       3.249723     0.482681    -4.424955 N          1 UNL1 0.000
    40 O       3.335381    -0.567361    -5.076666 O          1 UNL1 0.000
    41 O       3.723980     1.571731    -4.775857 O          1 UNL1 0.000
    42 H       2.399938     2.586714    -2.932206 H          1 UNL1 0.000
    43 H       2.489974    -1.737978    -3.023801 H          1 UNL1 0.000
    44 H       1.273229    -1.716566    -0.857612 H          1 UNL1 0.000
@<TRIPOS>BOND
     1      1      2   2
     2      2      3   1
     3      3      4   2
     4      4      5   1
     5      5      6   2
     6      6      1   1
     7      4      7   1
     8      7      8   1
     9      8      9   2
    10      9     10   1
    11     10     11   2
    12     11     12   1
    13     12     13   2
    14     13      8   1
    15      3     14   1
    16      9     14   1
    17     15     16   2
    18     16     17   1
    19     17     18   2
    20     18     19   1
    21     19     20   2
    22     20     15   1
    23      7     15   1
    24      1     21   1
    25      2     22   1
    26      5     23   1
    27      6     24   1
    28     10     25   1
    29     11     26   1
    30     12     27   1
    31     13     28   1
    32     16     29   1
    33     17     30   1
    34     18     31   1
    35     20     32   1
    36     33     34   2
    37     34     35   1
    38     35     36   2
    39     36     37   1
    40     37     38   2
    41     38     33   1
    42     39     40   2
    43     39     41   1
    44     36     39   1
    45     35     42   1
    46     37     43   1
    47     38     44   1
    48     19     33   1
