# Produced with molli package
@<TRIPOS>MOLECULE
I_9_T
46 50 0 0 0
SMALL
USER_CHARGES

@<TRIPOS>ATOM
     1 C      -5.329141     4.173343     1.547295 C          1 UNL1 0.000
     2 C      -5.976810     2.940896     1.577222 C          1 UNL1 0.000
     3 C      -5.231423     1.759565     1.648614 C          1 UNL1 0.000
     4 C      -3.827863     1.786163     1.687390 C          1 UNL1 0.000
     5 C      -3.194168     3.040836     1.658886 C          1 UNL1 0.000
     6 C      -3.938668     4.223276     1.589363 C          1 UNL1 0.000
     7 N      -3.105375     0.550807     1.760409 N          1 UNL1 0.000
     8 C      -3.868141    -0.662027     1.799206 C          1 UNL1 0.000
     9 C      -5.270251    -0.592948     1.758562 C          1 UNL1 0.000
    10 C      -6.054338    -1.750762     1.793513 C          1 UNL1 0.000
    11 C      -5.447622    -3.001859     1.870361 C          1 UNL1 0.000
    12 C      -4.059270    -3.093900     1.909943 C          1 UNL1 0.000
    13 C      -3.276069    -1.935092     1.873205 C          1 UNL1 0.000
    14 O      -5.962515     0.593935     1.679312 O          1 UNL1 0.000
    15 C      -1.678062     0.527639     1.768477 C          1 UNL1 0.000
    16 C      -0.977462     0.494164     2.981134 C          1 UNL1 0.000
    17 C       0.415775     0.463699     2.985763 C          1 UNL1 0.000
    18 C       1.117166     0.464907     1.777972 C          1 UNL1 0.000
    19 C       0.438619     0.502315     0.549747 C          1 UNL1 0.000
    20 C      -0.963857     0.535038     0.560159 C          1 UNL1 0.000
    21 H      -5.907644     5.091757     1.493011 H          1 UNL1 0.000
    22 H      -7.061820     2.895537     1.546383 H          1 UNL1 0.000
    23 H      -2.110980     3.118997     1.693503 H          1 UNL1 0.000
    24 H      -3.427641     5.182689     1.569295 H          1 UNL1 0.000
    25 H      -7.137388    -1.672608     1.759704 H          1 UNL1 0.000
    26 H      -6.056057    -3.901958     1.897630 H          1 UNL1 0.000
    27 H      -3.579821    -4.067962     1.968325 H          1 UNL1 0.000
    28 H      -2.195660    -2.046636     1.902608 H          1 UNL1 0.000
    29 H      -1.524216     0.492475     3.920823 H          1 UNL1 0.000
    30 H       0.956159     0.440375     3.928378 H          1 UNL1 0.000
    31 H       2.205413     0.445508     1.796075 H          1 UNL1 0.000
    32 H      -1.513741     0.556040    -0.378966 H          1 UNL1 0.000
    33 C       1.178577     0.507199    -0.715734 C          1 UNL1 0.000
    34 C       1.845303    -0.642510    -1.162445 C          1 UNL1 0.000
    35 C       2.552203    -0.638961    -2.368832 C          1 UNL1 0.000
    36 C       2.604416     0.515889    -3.155701 C          1 UNL1 0.000
    37 C       1.949565     1.669639    -2.711436 C          1 UNL1 0.000
    38 C       1.239617     1.662772    -1.507183 C          1 UNL1 0.000
    39 C       3.380250     0.539333    -4.439030 C          1 UNL1 0.000
    40 H       1.810621    -1.555667    -0.571796 H          1 UNL1 0.000
    41 H       3.058227    -1.547069    -2.688226 H          1 UNL1 0.000
    42 H       1.987760     2.583259    -3.300421 H          1 UNL1 0.000
    43 H       0.738583     2.572355    -1.182337 H          1 UNL1 0.000
    44 H       4.300400     1.117834    -4.310219 H          1 UNL1 0.000
    45 H       2.781923     0.988848    -5.238334 H          1 UNL1 0.000
    46 H       3.651423    -0.471663    -4.760567 H          1 UNL1 0.000
@<TRIPOS>BOND
     1      1      2   2
     2      2      3   1
     3      3      4   2
     4      4      5   1
     5      5      6   2
     6      6      1   1
     7      4      7   1
     8      7      8   1
     9      8      9   2
    10      9     10   1
    11     10     11   2
    12     11     12   1
    13     12     13   2
    14     13      8   1
    15      3     14   1
    16      9     14   1
    17     15     16   2
    18     16     17   1
    19     17     18   2
    20     18     19   1
    21     19     20   2
    22     20     15   1
    23      7     15   1
    24      1     21   1
    25      2     22   1
    26      5     23   1
    27      6     24   1
    28     10     25   1
    29     11     26   1
    30     12     27   1
    31     13     28   1
    32     16     29   1
    33     17     30   1
    34     18     31   1
    35     20     32   1
    36     33     34   2
    37     34     35   1
    38     35     36   2
    39     36     37   1
    40     37     38   2
    41     38     33   1
    42     36     39   1
    43     34     40   1
    44     35     41   1
    45     37     42   1
    46     38     43   1
    47     39     44   1
    48     39     45   1
    49     39     46   1
    50     19     33   1
