# Produced with molli package
@<TRIPOS>MOLECULE
I_9_S
48 52 0 0 0
SMALL
USER_CHARGES

@<TRIPOS>ATOM
     1 C      -5.290288     4.145458     1.846435 C          1 UNL1 0.000
     2 C      -5.936479     2.912081     1.847095 C          1 UNL1 0.000
     3 C      -5.189600     1.730144     1.813198 C          1 UNL1 0.000
     4 C      -3.785593     1.756938     1.776782 C          1 UNL1 0.000
     5 C      -3.153406     3.012471     1.776019 C          1 UNL1 0.000
     6 C      -3.899451     4.195539     1.810938 C          1 UNL1 0.000
     7 N      -3.061871     0.520470     1.746697 N          1 UNL1 0.000
     8 C      -3.823276    -0.693849     1.767389 C          1 UNL1 0.000
     9 C      -5.225567    -0.624822     1.805557 C          1 UNL1 0.000
    10 C      -6.007812    -1.783998     1.831110 C          1 UNL1 0.000
    11 C      -5.399502    -3.036515     1.818460 C          1 UNL1 0.000
    12 C      -4.011047    -3.128550     1.778033 C          1 UNL1 0.000
    13 C      -3.229747    -1.968278     1.751655 C          1 UNL1 0.000
    14 O      -5.919402     0.563426     1.821961 O          1 UNL1 0.000
    15 C      -1.634304     0.497300     1.743256 C          1 UNL1 0.000
    16 C      -0.927564     0.445451     2.952089 C          1 UNL1 0.000
    17 C       0.465133     0.407849     2.950282 C          1 UNL1 0.000
    18 C       1.160345     0.418450     1.739496 C          1 UNL1 0.000
    19 C       0.475914     0.472163     0.514917 C          1 UNL1 0.000
    20 C      -0.926544     0.515309     0.531093 C          1 UNL1 0.000
    21 H      -5.869828     5.064411     1.874182 H          1 UNL1 0.000
    22 H      -7.021690     2.866484     1.875587 H          1 UNL1 0.000
    23 H      -2.070001     3.091181     1.750060 H          1 UNL1 0.000
    24 H      -3.389766     5.155895     1.811013 H          1 UNL1 0.000
    25 H      -7.091104    -1.705731     1.861900 H          1 UNL1 0.000
    26 H      -6.006729    -3.937580     1.839689 H          1 UNL1 0.000
    27 H      -3.530737    -4.103810     1.767176 H          1 UNL1 0.000
    28 H      -2.149424    -2.079651     1.719158 H          1 UNL1 0.000
    29 H      -1.470082     0.432931     3.894338 H          1 UNL1 0.000
    30 H       1.009104     0.369390     3.890383 H          1 UNL1 0.000
    31 H       2.248483     0.390539     1.753513 H          1 UNL1 0.000
    32 H      -1.481712     0.551807    -0.404373 H          1 UNL1 0.000
    33 C       1.213924     0.473828    -0.751001 C          1 UNL1 0.000
    34 C       1.352679     1.646740    -1.502367 C          1 UNL1 0.000
    35 C       2.067969     1.643242    -2.704987 C          1 UNL1 0.000
    36 C       2.659714     0.465982    -3.186426 C          1 UNL1 0.000
    37 C       2.526734    -0.707508    -2.438229 C          1 UNL1 0.000
    38 C       1.808396    -0.700530    -1.234597 C          1 UNL1 0.000
    39 C       3.408061     0.541360    -4.481066 C          1 UNL1 0.000
    40 C       4.075286    -0.679917    -5.062572 C          1 UNL1 0.000
    41 O       3.499203     1.622348    -5.060986 O          1 UNL1 0.000
    42 H       0.910555     2.577566    -1.151703 H          1 UNL1 0.000
    43 H       2.162445     2.573337    -3.263826 H          1 UNL1 0.000
    44 H       2.965318    -1.648188    -2.751853 H          1 UNL1 0.000
    45 H       1.709646    -1.627397    -0.671290 H          1 UNL1 0.000
    46 H       3.884927    -0.697532    -6.140466 H          1 UNL1 0.000
    47 H       3.697284    -1.619770    -4.664293 H          1 UNL1 0.000
    48 H       5.152166    -0.616514    -4.885149 H          1 UNL1 0.000
@<TRIPOS>BOND
     1      1      2   2
     2      2      3   1
     3      3      4   2
     4      4      5   1
     5      5      6   2
     6      6      1   1
     7      4      7   1
     8      7      8   1
     9      8      9   2
    10      9     10   1
    11     10     11   2
    12     11     12   1
    13     12     13   2
    14     13      8   1
    15      3     14   1
    16      9     14   1
    17     15     16   2
    18     16     17   1
    19     17     18   2
    20     18     19   1
    21     19     20   2
    22     20     15   1
    23      7     15   1
    24      1     21   1
    25      2     22   1
    26      5     23   1
    27      6     24   1
    28     10     25   1
    29     11     26   1
    30     12     27   1
    31     13     28   1
    32     16     29   1
    33     17     30   1
    34     18     31   1
    35     20     32   1
    36     33     34   2
    37     34     35   1
    38     35     36   2
    39     36     37   1
    40     37     38   2
    41     38     33   1
    42     36     39   1
    43     39     40   1
    44     39     41   2
    45     34     42   1
    46     35     43   1
    47     37     44   1
    48     38     45   1
    49     40     46   1
    50     40     47   1
    51     40     48   1
    52     19     33   1
