# Produced with molli package
@<TRIPOS>MOLECULE
I_9_Q
41 45 0 0 0
SMALL
USER_CHARGES

@<TRIPOS>ATOM
     1 C      -5.346575     4.113962     1.690484 C          1 UNL1 0.000
     2 C      -5.971640     2.869756     1.696093 C          1 UNL1 0.000
     3 C      -5.204447     1.700561     1.680331 C          1 UNL1 0.000
     4 C      -3.800713     1.751185     1.658927 C          1 UNL1 0.000
     5 C      -3.190013     3.017169     1.652169 C          1 UNL1 0.000
     6 C      -3.956454     4.187465     1.667975 C          1 UNL1 0.000
     7 N      -3.056026     0.527161     1.649409 N          1 UNL1 0.000
     8 C      -3.796762    -0.699982     1.660574 C          1 UNL1 0.000
     9 C      -5.200350    -0.654839     1.679784 C          1 UNL1 0.000
    10 C      -5.962860    -1.827328     1.690576 C          1 UNL1 0.000
    11 C      -5.333280    -3.069367     1.681720 C          1 UNL1 0.000
    12 C      -3.943055    -3.137760     1.661221 C          1 UNL1 0.000
    13 C      -3.181547    -1.964253     1.650114 C          1 UNL1 0.000
    14 O      -5.914314     0.521498     1.689842 O          1 UNL1 0.000
    15 C      -1.628603     0.527901     1.655250 C          1 UNL1 0.000
    16 C      -0.928059     0.471101     2.867344 C          1 UNL1 0.000
    17 C       0.465093     0.451379     2.873514 C          1 UNL1 0.000
    18 C       1.167232     0.479122     1.666701 C          1 UNL1 0.000
    19 C       0.488938     0.536249     0.437527 C          1 UNL1 0.000
    20 C      -0.914270     0.570807     0.448299 C          1 UNL1 0.000
    21 H      -5.941648     5.023162     1.702940 H          1 UNL1 0.000
    22 H      -7.056123     2.805778     1.713245 H          1 UNL1 0.000
    23 H      -2.107625     3.114465     1.633143 H          1 UNL1 0.000
    24 H      -3.462466     5.155952     1.661877 H          1 UNL1 0.000
    25 H      -7.047666    -1.767612     1.705594 H          1 UNL1 0.000
    26 H      -5.925235    -3.980722     1.689976 H          1 UNL1 0.000
    27 H      -3.446125    -4.104707     1.653150 H          1 UNL1 0.000
    28 H      -2.099302    -2.057589     1.632310 H          1 UNL1 0.000
    29 H      -1.475916     0.445442     3.806291 H          1 UNL1 0.000
    30 H       1.003649     0.417357     3.817065 H          1 UNL1 0.000
    31 H       2.255805     0.473138     1.689616 H          1 UNL1 0.000
    32 H      -1.462162     0.624630    -0.491112 H          1 UNL1 0.000
    33 C       1.224118     0.552778    -0.825459 C          1 UNL1 0.000
    34 N       1.199451     1.715085    -1.525773 N          1 UNL1 0.000
    35 C       1.898221     1.718795    -2.684816 C          1 UNL1 0.000
    36 C       2.590280     0.610063    -3.142362 C          1 UNL1 0.000
    37 N       2.618649    -0.556577    -2.461521 N          1 UNL1 0.000
    38 C       1.922094    -0.557507    -1.297618 C          1 UNL1 0.000
    39 H       1.888679     2.649146    -3.241102 H          1 UNL1 0.000
    40 H       3.143538     0.631583    -4.074254 H          1 UNL1 0.000
    41 H       1.934107    -1.493408    -0.748828 H          1 UNL1 0.000
@<TRIPOS>BOND
     1      1      2   2
     2      2      3   1
     3      3      4   2
     4      4      5   1
     5      5      6   2
     6      6      1   1
     7      4      7   1
     8      7      8   1
     9      8      9   2
    10      9     10   1
    11     10     11   2
    12     11     12   1
    13     12     13   2
    14     13      8   1
    15      3     14   1
    16      9     14   1
    17     15     16   2
    18     16     17   1
    19     17     18   2
    20     18     19   1
    21     19     20   2
    22     20     15   1
    23      7     15   1
    24      1     21   1
    25      2     22   1
    26      5     23   1
    27      6     24   1
    28     10     25   1
    29     11     26   1
    30     12     27   1
    31     13     28   1
    32     16     29   1
    33     17     30   1
    34     18     31   1
    35     20     32   1
    36     33     34   2
    37     34     35   1
    38     35     36   2
    39     36     37   1
    40     37     38   2
    41     38     33   1
    42     35     39   1
    43     36     40   1
    44     38     41   1
    45     19     33   1
