# Produced with molli package
@<TRIPOS>MOLECULE
I_9_N
40 44 0 0 0
SMALL
USER_CHARGES

@<TRIPOS>ATOM
     1 C      -5.370415     4.036654     1.674126 C          1 UNL1 0.000
     2 C      -6.003683     2.796731     1.703682 C          1 UNL1 0.000
     3 C      -5.245292     1.623932     1.777576 C          1 UNL1 0.000
     4 C      -3.842249     1.666736     1.819176 C          1 UNL1 0.000
     5 C      -3.223267     2.928981     1.792626 C          1 UNL1 0.000
     6 C      -3.980706     4.102763     1.720215 C          1 UNL1 0.000
     7 N      -3.105142     0.439411     1.890862 N          1 UNL1 0.000
     8 C      -3.853046    -0.782344     1.920381 C          1 UNL1 0.000
     9 C      -5.256155    -0.729382     1.876808 C          1 UNL1 0.000
    10 C      -6.026346    -1.896476     1.898933 C          1 UNL1 0.000
    11 C      -5.405115    -3.140810     1.966207 C          1 UNL1 0.000
    12 C      -4.015671    -3.216721     2.010619 C          1 UNL1 0.000
    13 C      -3.246143    -2.048542     1.987039 C          1 UNL1 0.000
    14 O      -5.962317     0.449736     1.804850 O          1 UNL1 0.000
    15 C      -1.677948     0.434884     1.862544 C          1 UNL1 0.000
    16 C      -0.944156     0.420109     3.057330 C          1 UNL1 0.000
    17 C       0.450813     0.442809     3.027997 C          1 UNL1 0.000
    18 C       1.122228     0.481834     1.804555 C          1 UNL1 0.000
    19 C       0.400023     0.487712     0.606211 C          1 UNL1 0.000
    20 C      -0.997840     0.463912     0.636514 C          1 UNL1 0.000
    21 H      -5.959100     4.948325     1.616491 H          1 UNL1 0.000
    22 H      -7.088134     2.739107     1.669176 H          1 UNL1 0.000
    23 H      -2.141149     3.020584     1.829979 H          1 UNL1 0.000
    24 H      -3.480729     5.067962     1.700135 H          1 UNL1 0.000
    25 H      -7.110282    -1.830810     1.861842 H          1 UNL1 0.000
    26 H      -6.002931    -4.048229     1.982785 H          1 UNL1 0.000
    27 H      -3.525473    -4.185753     2.062828 H          1 UNL1 0.000
    28 H      -2.164648    -2.147518     2.021683 H          1 UNL1 0.000
    29 H      -1.466579     0.398194     4.010817 H          1 UNL1 0.000
    30 H       1.013763     0.434105     3.957779 H          1 UNL1 0.000
    31 H       2.209796     0.501829     1.790880 H          1 UNL1 0.000
    32 H      -1.568964     0.480982    -0.289141 H          1 UNL1 0.000
    33 C       1.098381     0.540817    -0.664538 C          1 UNL1 0.000
    34 C       1.178114    -0.564380    -1.487853 C          1 UNL1 0.000
    35 S       2.048117    -0.239005    -2.926401 S          1 UNL1 0.000
    36 C       2.320051     1.384380    -2.460179 C          1 UNL1 0.000
    37 C       1.766586     1.669505    -1.231106 C          1 UNL1 0.000
    38 H       0.771759    -1.552653    -1.318645 H          1 UNL1 0.000
    39 H       2.870892     2.050905    -3.109410 H          1 UNL1 0.000
    40 H       1.827305     2.645548    -0.765049 H          1 UNL1 0.000
@<TRIPOS>BOND
     1      1      2   2
     2      2      3   1
     3      3      4   2
     4      4      5   1
     5      5      6   2
     6      6      1   1
     7      4      7   1
     8      7      8   1
     9      8      9   2
    10      9     10   1
    11     10     11   2
    12     11     12   1
    13     12     13   2
    14     13      8   1
    15      3     14   1
    16      9     14   1
    17     15     16   2
    18     16     17   1
    19     17     18   2
    20     18     19   1
    21     19     20   2
    22     20     15   1
    23      7     15   1
    24      1     21   1
    25      2     22   1
    26      5     23   1
    27      6     24   1
    28     10     25   1
    29     11     26   1
    30     12     27   1
    31     13     28   1
    32     16     29   1
    33     17     30   1
    34     18     31   1
    35     20     32   1
    36     33     34   2
    37     34     35   1
    38     35     36   1
    39     36     37   2
    40     37     33   1
    41     34     38   1
    42     36     39   1
    43     37     40   1
    44     19     33   1
