# Produced with molli package
@<TRIPOS>MOLECULE
I_9_L
47 52 0 0 0
SMALL
USER_CHARGES

@<TRIPOS>ATOM
     1 C      -5.347327     4.027542     1.776486 C          1 UNL1 0.000
     2 C      -5.977977     2.786209     1.798055 C          1 UNL1 0.000
     3 C      -5.216147     1.613358     1.798559 C          1 UNL1 0.000
     4 C      -3.812450     1.657563     1.776321 C          1 UNL1 0.000
     5 C      -3.196032     2.920876     1.755649 C          1 UNL1 0.000
     6 C      -3.956951     4.094775     1.755561 C          1 UNL1 0.000
     7 N      -3.072846     0.430341     1.780178 N          1 UNL1 0.000
     8 C      -3.818452    -0.793283     1.807608 C          1 UNL1 0.000
     9 C      -5.221862    -0.741853     1.831029 C          1 UNL1 0.000
    10 C      -5.989453    -1.910695     1.861162 C          1 UNL1 0.000
    11 C      -5.365034    -3.155351     1.866644 C          1 UNL1 0.000
    12 C      -3.975169    -3.229841     1.839912 C          1 UNL1 0.000
    13 C      -3.208508    -2.059926     1.809749 C          1 UNL1 0.000
    14 O      -5.930984     0.437632     1.825548 O          1 UNL1 0.000
    15 C      -1.645277     0.426639     1.774435 C          1 UNL1 0.000
    16 C      -0.934241     0.386273     2.981033 C          1 UNL1 0.000
    17 C       0.459219     0.374199     2.974737 C          1 UNL1 0.000
    18 C       1.150685     0.400399     1.761769 C          1 UNL1 0.000
    19 C       0.461430     0.444313     0.539769 C          1 UNL1 0.000
    20 C      -0.941425     0.458855     0.560847 C          1 UNL1 0.000
    21 H      -5.938622     4.939333     1.777084 H          1 UNL1 0.000
    22 H      -7.062706     2.727230     1.815741 H          1 UNL1 0.000
    23 H      -2.113370     3.012325     1.740842 H          1 UNL1 0.000
    24 H      -3.459023     5.061054     1.740035 H          1 UNL1 0.000
    25 H      -7.073872    -1.846151     1.879787 H          1 UNL1 0.000
    26 H      -5.960607    -4.064052     1.889972 H          1 UNL1 0.000
    27 H      -3.481922    -4.198736     1.841351 H          1 UNL1 0.000
    28 H      -2.126443    -2.157654     1.786125 H          1 UNL1 0.000
    29 H      -1.473464     0.363588     3.924825 H          1 UNL1 0.000
    30 H       1.007118     0.344180     3.912764 H          1 UNL1 0.000
    31 H       2.239254     0.392787     1.770585 H          1 UNL1 0.000
    32 H      -1.498599     0.484084    -0.373794 H          1 UNL1 0.000
    33 C       1.191670     0.469456    -0.731746 C          1 UNL1 0.000
    34 C       1.254292     1.643793    -1.495334 C          1 UNL1 0.000
    35 C       1.944839     1.698381    -2.712451 C          1 UNL1 0.000
    36 C       2.572103     0.528333    -3.151168 C          1 UNL1 0.000
    37 C       2.533784    -0.662209    -2.427197 C          1 UNL1 0.000
    38 C       1.838095    -0.688942    -1.202154 C          1 UNL1 0.000
    39 N       3.306082     0.285688    -4.290666 N          1 UNL1 0.000
    40 C       3.727563    -1.017649    -4.313453 C          1 UNL1 0.000
    41 C       3.264287    -1.629483    -3.171279 C          1 UNL1 0.000
    42 H       0.759811     2.545292    -1.136317 H          1 UNL1 0.000
    43 H       1.985055     2.617291    -3.287667 H          1 UNL1 0.000
    44 H       1.795066    -1.611309    -0.629082 H          1 UNL1 0.000
    45 H       3.498702     0.973671    -5.004990 H          1 UNL1 0.000
    46 H       4.317275    -1.395730    -5.137614 H          1 UNL1 0.000
    47 H       3.429348    -2.663250    -2.897589 H          1 UNL1 0.000
@<TRIPOS>BOND
     1      1      2   2
     2      2      3   1
     3      3      4   2
     4      4      5   1
     5      5      6   2
     6      6      1   1
     7      4      7   1
     8      7      8   1
     9      8      9   2
    10      9     10   1
    11     10     11   2
    12     11     12   1
    13     12     13   2
    14     13      8   1
    15      3     14   1
    16      9     14   1
    17     15     16   2
    18     16     17   1
    19     17     18   2
    20     18     19   1
    21     19     20   2
    22     20     15   1
    23      7     15   1
    24      1     21   1
    25      2     22   1
    26      5     23   1
    27      6     24   1
    28     10     25   1
    29     11     26   1
    30     12     27   1
    31     13     28   1
    32     16     29   1
    33     17     30   1
    34     18     31   1
    35     20     32   1
    36     33     34   2
    37     34     35   1
    38     35     36   2
    39     36     37   1
    40     37     38   2
    41     38     33   1
    42     36     39   1
    43     39     40   1
    44     40     41   2
    45     41     37   1
    46     34     42   1
    47     35     43   1
    48     38     44   1
    49     39     45   1
    50     40     46   1
    51     41     47   1
    52     19     33   1
