# Produced with molli package
@<TRIPOS>MOLECULE
J_10_R
67 72 0 0 0
SMALL
USER_CHARGES

@<TRIPOS>ATOM
     1 C      -5.112989     4.248039    -1.132552 C          1 UNL1 0.000
     2 C      -5.728116     3.119020    -1.663747 C          1 UNL1 0.000
     3 C      -5.119058     1.862517    -1.550153 C          1 UNL1 0.000
     4 C      -3.907869     1.694077    -0.858374 C          1 UNL1 0.000
     5 C      -3.296300     2.862821    -0.354370 C          1 UNL1 0.000
     6 C      -3.886786     4.123066    -0.492071 C          1 UNL1 0.000
     7 N      -3.269309     0.400319    -0.693127 N          1 UNL1 0.000
     8 C      -3.978015    -0.863803    -0.626533 C          1 UNL1 0.000
     9 C      -5.346895    -0.944783    -0.315929 C          1 UNL1 0.000
    10 C      -6.043426    -2.159745    -0.364517 C          1 UNL1 0.000
    11 C      -5.369275    -3.357978    -0.620480 C          1 UNL1 0.000
    12 C      -3.988219    -3.314524    -0.828638 C          1 UNL1 0.000
    13 C      -3.312067    -2.087126    -0.854997 C          1 UNL1 0.000
    14 N      -6.080825    -4.608515    -0.654653 N          1 UNL1 0.000
    15 C      -6.342724    -5.283437     0.605794 C          1 UNL1 0.000
    16 C      -6.360844    -4.579229     1.828529 C          1 UNL1 0.000
    17 C      -6.649575    -5.209457     3.044292 C          1 UNL1 0.000
    18 C      -6.915818    -6.571510     3.074974 C          1 UNL1 0.000
    19 C      -6.855764    -7.306033     1.896050 C          1 UNL1 0.000
    20 C      -6.550344    -6.672849     0.683394 C          1 UNL1 0.000
    21 C      -6.531330    -5.100674    -1.947285 C          1 UNL1 0.000
    22 C      -7.669687    -5.916902    -2.084384 C          1 UNL1 0.000
    23 C      -8.073755    -6.417777    -3.329926 C          1 UNL1 0.000
    24 C      -7.374372    -6.078193    -4.482372 C          1 UNL1 0.000
    25 C      -6.281307    -5.226707    -4.390611 C          1 UNL1 0.000
    26 C      -5.870473    -4.743524    -3.141938 C          1 UNL1 0.000
    27 C      -1.828754     0.386997    -0.707979 C          1 UNL1 0.000
    28 C      -1.143398     0.513983    -1.922659 C          1 UNL1 0.000
    29 C       0.241946     0.568114    -1.922814 C          1 UNL1 0.000
    30 C       0.963023     0.538037    -0.734073 C          1 UNL1 0.000
    31 C       0.298840     0.428796     0.497295 C          1 UNL1 0.000
    32 C      -1.101992     0.314648     0.494128 C          1 UNL1 0.000
    33 F       0.898392     0.677044    -3.085153 F          1 UNL1 0.000
    34 H      -5.582084     5.223650    -1.227587 H          1 UNL1 0.000
    35 H      -6.681452     3.212936    -2.177634 H          1 UNL1 0.000
    36 H      -5.607279     1.020154    -2.032168 H          1 UNL1 0.000
    37 H      -2.346390     2.811066     0.169959 H          1 UNL1 0.000
    38 H      -3.386712     5.001566    -0.092735 H          1 UNL1 0.000
    39 H      -5.908479    -0.061896    -0.025283 H          1 UNL1 0.000
    40 H      -7.113315    -2.174419    -0.170382 H          1 UNL1 0.000
    41 H      -3.438580    -4.235772    -1.006473 H          1 UNL1 0.000
    42 H      -2.247488    -2.115116    -1.072032 H          1 UNL1 0.000
    43 H      -6.161234    -3.513209     1.867754 H          1 UNL1 0.000
    44 H      -6.666745    -4.627125     3.961977 H          1 UNL1 0.000
    45 H      -7.152722    -7.060074     4.016010 H          1 UNL1 0.000
    46 H      -7.039709    -8.377050     1.915450 H          1 UNL1 0.000
    47 H      -6.463775    -7.297032    -0.201781 H          1 UNL1 0.000
    48 H      -8.280159    -6.167272    -1.221243 H          1 UNL1 0.000
    49 H      -8.942422    -7.067898    -3.395458 H          1 UNL1 0.000
    50 H      -7.687525    -6.463311    -5.449028 H          1 UNL1 0.000
    51 H      -5.739653    -4.934937    -5.286912 H          1 UNL1 0.000
    52 H      -5.006944    -4.086115    -3.131495 H          1 UNL1 0.000
    53 H      -1.685803     0.569224    -2.861059 H          1 UNL1 0.000
    54 H       2.046815     0.603511    -0.779460 H          1 UNL1 0.000
    55 H      -1.641058     0.223498     1.436075 H          1 UNL1 0.000
    56 C       1.045653     0.494269     1.754937 C          1 UNL1 0.000
    57 N       1.042045    -0.630473     2.514360 N          1 UNL1 0.000
    58 C       1.747284    -0.605509     3.673290 C          1 UNL1 0.000
    59 C       2.433722     0.513722     4.109623 C          1 UNL1 0.000
    60 C       2.421082     1.675429     3.341887 C          1 UNL1 0.000
    61 C       1.719883     1.658509     2.137893 C          1 UNL1 0.000
    62 N       3.157720     0.467292     5.359671 N          1 UNL1 0.000
    63 O       3.120266     1.473524     6.075514 O          1 UNL1 0.000
    64 O       3.771880    -0.578383     5.620592 O          1 UNL1 0.000
    65 H       1.728369    -1.532702     4.240932 H          1 UNL1 0.000
    66 H       2.946369     2.572635     3.658391 H          1 UNL1 0.000
    67 H       1.692126     2.545352     1.510424 H          1 UNL1 0.000
@<TRIPOS>BOND
     1      1      2   2
     2      2      3   1
     3      3      4   2
     4      4      5   1
     5      5      6   2
     6      6      1   1
     7      4      7   1
     8      7      8   1
     9      8      9   2
    10      9     10   1
    11     10     11   2
    12     11     12   1
    13     12     13   2
    14     13      8   1
    15     25     26   2
    16     24     25   1
    17     23     24   2
    18     22     23   1
    19     21     22   2
    20     21     26   1
    21     19     20   2
    22     18     19   1
    23     17     18   2
    24     16     17   1
    25     15     16   2
    26     15     20   1
    27     14     15   1
    28     14     21   1
    29     11     14   1
    30     27     28   2
    31     28     29   1
    32     29     30   2
    33     30     31   1
    34     31     32   2
    35     32     27   1
    36     29     33   1
    37      7     27   1
    38      1     34   1
    39      2     35   1
    40      3     36   1
    41      5     37   1
    42      6     38   1
    43      9     39   1
    44     10     40   1
    45     12     41   1
    46     13     42   1
    47     16     43   1
    48     17     44   1
    49     18     45   1
    50     19     46   1
    51     20     47   1
    52     22     48   1
    53     23     49   1
    54     24     50   1
    55     25     51   1
    56     26     52   1
    57     28     53   1
    58     30     54   1
    59     32     55   1
    60     56     57   2
    61     57     58   1
    62     58     59   2
    63     59     60   1
    64     60     61   2
    65     61     56   1
    66     62     63   2
    67     62     64   1
    68     59     62   1
    69     58     65   1
    70     60     66   1
    71     61     67   1
    72     31     56   1
