# Produced with molli package
@<TRIPOS>MOLECULE
J_10_M
67 72 0 0 0
SMALL
USER_CHARGES

@<TRIPOS>ATOM
     1 C      -5.224654     4.276287    -0.633718 C          1 UNL1 0.000
     2 C      -5.911802     3.155927    -0.179626 C          1 UNL1 0.000
     3 C      -5.276551     1.907149    -0.131005 C          1 UNL1 0.000
     4 C      -3.960936     1.730772    -0.592933 C          1 UNL1 0.000
     5 C      -3.277344     2.898148    -1.000152 C          1 UNL1 0.000
     6 C      -3.897504     4.152172    -1.021303 C          1 UNL1 0.000
     7 N      -3.309080     0.432447    -0.634235 N          1 UNL1 0.000
     8 C      -4.002433    -0.838582    -0.763199 C          1 UNL1 0.000
     9 C      -5.306283    -0.945745    -1.278050 C          1 UNL1 0.000
    10 C      -5.985404    -2.172231    -1.321371 C          1 UNL1 0.000
    11 C      -5.359376    -3.351827    -0.901793 C          1 UNL1 0.000
    12 C      -4.032894    -3.281901    -0.465507 C          1 UNL1 0.000
    13 C      -3.371212    -2.047803    -0.396704 C          1 UNL1 0.000
    14 N      -6.068353    -4.610058    -0.914867 N          1 UNL1 0.000
    15 C      -6.318902    -5.255470     0.365875 C          1 UNL1 0.000
    16 C      -6.297233    -4.505410     1.564770 C          1 UNL1 0.000
    17 C      -6.565338    -5.083609     2.810783 C          1 UNL1 0.000
    18 C      -6.887428    -6.431121     2.894162 C          1 UNL1 0.000
    19 C      -6.890571    -7.205247     1.738638 C          1 UNL1 0.000
    20 C      -6.576363    -6.630611     0.497554 C          1 UNL1 0.000
    21 C      -6.534532    -5.107590    -2.200018 C          1 UNL1 0.000
    22 C      -7.620421    -5.988307    -2.339258 C          1 UNL1 0.000
    23 C      -8.014998    -6.477915    -3.593169 C          1 UNL1 0.000
    24 C      -7.374015    -6.048034    -4.750056 C          1 UNL1 0.000
    25 C      -6.334476    -5.133200    -4.654229 C          1 UNL1 0.000
    26 C      -5.913168    -4.684356    -3.397780 C          1 UNL1 0.000
    27 C      -1.867933     0.413947    -0.623784 C          1 UNL1 0.000
    28 C      -1.160593     0.351841    -1.830944 C          1 UNL1 0.000
    29 C       0.225478     0.389270    -1.811817 C          1 UNL1 0.000
    30 C       0.927670     0.448493    -0.612547 C          1 UNL1 0.000
    31 C       0.242335     0.480055     0.610581 C          1 UNL1 0.000
    32 C      -1.162079     0.483418     0.592458 C          1 UNL1 0.000
    33 F       0.901231     0.375705    -2.968082 F          1 UNL1 0.000
    34 H      -5.716731     5.244313    -0.673399 H          1 UNL1 0.000
    35 H      -6.945935     3.249654     0.142287 H          1 UNL1 0.000
    36 H      -5.837859     1.075792     0.285674 H          1 UNL1 0.000
    37 H      -2.243432     2.856970    -1.330648 H          1 UNL1 0.000
    38 H      -3.339994     5.024739    -1.352144 H          1 UNL1 0.000
    39 H      -5.829012    -0.078019    -1.668983 H          1 UNL1 0.000
    40 H      -7.013068    -2.203166    -1.676527 H          1 UNL1 0.000
    41 H      -3.510233    -4.189719    -0.173302 H          1 UNL1 0.000
    42 H      -2.347420    -2.057182    -0.032898 H          1 UNL1 0.000
    43 H      -6.079547    -3.440208     1.551165 H          1 UNL1 0.000
    44 H      -6.531003    -4.472064     3.708772 H          1 UNL1 0.000
    45 H      -7.124496    -6.877452     3.856262 H          1 UNL1 0.000
    46 H      -7.132465    -8.263495     1.799292 H          1 UNL1 0.000
    47 H      -6.530929    -7.292842    -0.361700 H          1 UNL1 0.000
    48 H      -8.201585    -6.303733    -1.478512 H          1 UNL1 0.000
    49 H      -8.834532    -7.188910    -3.662252 H          1 UNL1 0.000
    50 H      -7.689932    -6.415843    -5.722518 H          1 UNL1 0.000
    51 H      -5.841770    -4.767587    -5.551423 H          1 UNL1 0.000
    52 H      -5.077631    -3.988597    -3.373985 H          1 UNL1 0.000
    53 H      -1.686890     0.308799    -2.779028 H          1 UNL1 0.000
    54 H       2.013954     0.469726    -0.641805 H          1 UNL1 0.000
    55 H      -1.720430     0.516990     1.526627 H          1 UNL1 0.000
    56 C       0.989640     0.486599     1.870971 C          1 UNL1 0.000
    57 C       1.557616    -0.699538     2.363488 C          1 UNL1 0.000
    58 C       2.310123    -0.699955     3.541984 C          1 UNL1 0.000
    59 C       2.507790     0.490526     4.246170 C          1 UNL1 0.000
    60 C       1.940577     1.676866     3.770522 C          1 UNL1 0.000
    61 C       1.184614     1.673045     2.592528 C          1 UNL1 0.000
    62 C       3.294190     0.494765     5.444188 C          1 UNL1 0.000
    63 N       3.935370     0.496046     6.413041 N          1 UNL1 0.000
    64 H       1.419232    -1.635090     1.823405 H          1 UNL1 0.000
    65 H       2.743283    -1.632856     3.898493 H          1 UNL1 0.000
    66 H       2.088139     2.612659     4.306772 H          1 UNL1 0.000
    67 H       0.759662     2.607958     2.230891 H          1 UNL1 0.000
@<TRIPOS>BOND
     1      1      2   2
     2      2      3   1
     3      3      4   2
     4      4      5   1
     5      5      6   2
     6      6      1   1
     7      4      7   1
     8      7      8   1
     9      8      9   2
    10      9     10   1
    11     10     11   2
    12     11     12   1
    13     12     13   2
    14     13      8   1
    15     25     26   2
    16     24     25   1
    17     23     24   2
    18     22     23   1
    19     21     22   2
    20     21     26   1
    21     19     20   2
    22     18     19   1
    23     17     18   2
    24     16     17   1
    25     15     16   2
    26     15     20   1
    27     14     15   1
    28     14     21   1
    29     11     14   1
    30     27     28   2
    31     28     29   1
    32     29     30   2
    33     30     31   1
    34     31     32   2
    35     32     27   1
    36     29     33   1
    37      7     27   1
    38      1     34   1
    39      2     35   1
    40      3     36   1
    41      5     37   1
    42      6     38   1
    43      9     39   1
    44     10     40   1
    45     12     41   1
    46     13     42   1
    47     16     43   1
    48     17     44   1
    49     18     45   1
    50     19     46   1
    51     20     47   1
    52     22     48   1
    53     23     49   1
    54     24     50   1
    55     25     51   1
    56     26     52   1
    57     28     53   1
    58     30     54   1
    59     32     55   1
    60     56     57   2
    61     57     58   1
    62     58     59   2
    63     59     60   1
    64     60     61   2
    65     61     56   1
    66     62     63   3
    67     59     62   1
    68     57     64   1
    69     58     65   1
    70     60     66   1
    71     61     67   1
    72     31     56   1
