# Produced with molli package
@<TRIPOS>MOLECULE
J_10_L
70 76 0 0 0
SMALL
USER_CHARGES

@<TRIPOS>ATOM
     1 C      -5.146663     4.220769    -0.509158 C          1 UNL1 0.000
     2 C      -5.791993     3.090278    -0.017815 C          1 UNL1 0.000
     3 C      -5.157140     1.842443    -0.056669 C          1 UNL1 0.000
     4 C      -3.876585     1.688218    -0.616781 C          1 UNL1 0.000
     5 C      -3.237021     2.857081    -1.079515 C          1 UNL1 0.000
     6 C      -3.863144     4.106742    -1.029295 C          1 UNL1 0.000
     7 N      -3.219524     0.399553    -0.693395 N          1 UNL1 0.000
     8 C      -3.925582    -0.860211    -0.793316 C          1 UNL1 0.000
     9 C      -5.184874    -0.964453    -1.409029 C          1 UNL1 0.000
    10 C      -5.878231    -2.182228    -1.454930 C          1 UNL1 0.000
    11 C      -5.324052    -3.343182    -0.899908 C          1 UNL1 0.000
    12 C      -4.044650    -3.266691    -0.337792 C          1 UNL1 0.000
    13 C      -3.357410    -2.048106    -0.291822 C          1 UNL1 0.000
    14 N      -6.059786    -4.582819    -0.886758 N          1 UNL1 0.000
    15 C      -6.309351    -5.229185     0.386934 C          1 UNL1 0.000
    16 C      -6.397777    -4.473554     1.574697 C          1 UNL1 0.000
    17 C      -6.642388    -5.077982     2.811636 C          1 UNL1 0.000
    18 C      -6.816305    -6.455080     2.889715 C          1 UNL1 0.000
    19 C      -6.724697    -7.227648     1.735434 C          1 UNL1 0.000
    20 C      -6.458722    -6.622708     0.500802 C          1 UNL1 0.000
    21 C      -6.548782    -5.112493    -2.141596 C          1 UNL1 0.000
    22 C      -7.758501    -5.823338    -2.230179 C          1 UNL1 0.000
    23 C      -8.208481    -6.341734    -3.449767 C          1 UNL1 0.000
    24 C      -7.470513    -6.137343    -4.612259 C          1 UNL1 0.000
    25 C      -6.282841    -5.415487    -4.557176 C          1 UNL1 0.000
    26 C      -5.826384    -4.912504    -3.335140 C          1 UNL1 0.000
    27 C      -1.781519     0.371760    -0.697194 C          1 UNL1 0.000
    28 C      -1.086494     0.236651    -1.904425 C          1 UNL1 0.000
    29 C       0.300533     0.248108    -1.897771 C          1 UNL1 0.000
    30 C       1.014530     0.354067    -0.708565 C          1 UNL1 0.000
    31 C       0.340087     0.454592     0.516704 C          1 UNL1 0.000
    32 C      -1.063737     0.485604     0.507531 C          1 UNL1 0.000
    33 F       0.965107     0.153042    -3.056947 F          1 UNL1 0.000
    34 H      -5.638278     5.189433    -0.478692 H          1 UNL1 0.000
    35 H      -6.790414     3.176542     0.403151 H          1 UNL1 0.000
    36 H      -5.679096     0.992394     0.374578 H          1 UNL1 0.000
    37 H      -2.238813     2.814730    -1.506561 H          1 UNL1 0.000
    38 H      -3.344158     4.986021    -1.402235 H          1 UNL1 0.000
    39 H      -5.649693    -0.096636    -1.869940 H          1 UNL1 0.000
    40 H      -6.868042    -2.215021    -1.904436 H          1 UNL1 0.000
    41 H      -3.576656    -4.159578     0.070231 H          1 UNL1 0.000
    42 H      -2.374270    -2.044278     0.170626 H          1 UNL1 0.000
    43 H      -6.290472    -3.391650     1.550096 H          1 UNL1 0.000
    44 H      -6.702019    -4.467390     3.708842 H          1 UNL1 0.000
    45 H      -7.018620    -6.925119     3.848477 H          1 UNL1 0.000
    46 H      -6.855135    -8.305242     1.792807 H          1 UNL1 0.000
    47 H      -6.358887    -7.262031    -0.372580 H          1 UNL1 0.000
    48 H      -8.376983    -5.971118    -1.348579 H          1 UNL1 0.000
    49 H      -9.140157    -6.900118    -3.489296 H          1 UNL1 0.000
    50 H      -7.822435    -6.535630    -5.560227 H          1 UNL1 0.000
    51 H      -5.704990    -5.244440    -5.461711 H          1 UNL1 0.000
    52 H      -4.883790    -4.369997    -3.323168 H          1 UNL1 0.000
    53 H      -1.621386     0.150092    -2.844474 H          1 UNL1 0.000
    54 H       2.100628     0.338902    -0.744294 H          1 UNL1 0.000
    55 H      -1.611597     0.577823     1.444060 H          1 UNL1 0.000
    56 C       1.092965     0.484487     1.774760 C          1 UNL1 0.000
    57 C       1.138998    -0.652779     2.595656 C          1 UNL1 0.000
    58 C       1.890664    -0.684049     3.776206 C          1 UNL1 0.000
    59 C       2.600905     0.469596     4.118186 C          1 UNL1 0.000
    60 C       2.574960     1.627179     3.340371 C          1 UNL1 0.000
    61 C       1.810727     1.632812     2.155722 C          1 UNL1 0.000
    62 N       3.421948     0.723150     5.193135 N          1 UNL1 0.000
    63 C       3.910723     2.000108     5.126845 C          1 UNL1 0.000
    64 C       3.399729     2.586411     3.990254 C          1 UNL1 0.000
    65 H       0.592537    -1.549072     2.305176 H          1 UNL1 0.000
    66 H       1.923863    -1.577762     4.390971 H          1 UNL1 0.000
    67 H       1.786175     2.526303     1.537591 H          1 UNL1 0.000
    68 H       3.633045     0.054592     5.923094 H          1 UNL1 0.000
    69 H       4.577407     2.380259     5.888366 H          1 UNL1 0.000
    70 H       3.600741     3.595642     3.656941 H          1 UNL1 0.000
@<TRIPOS>BOND
     1      1      2   2
     2      2      3   1
     3      3      4   2
     4      4      5   1
     5      5      6   2
     6      6      1   1
     7      4      7   1
     8      7      8   1
     9      8      9   2
    10      9     10   1
    11     10     11   2
    12     11     12   1
    13     12     13   2
    14     13      8   1
    15     25     26   2
    16     24     25   1
    17     23     24   2
    18     22     23   1
    19     21     22   2
    20     21     26   1
    21     19     20   2
    22     18     19   1
    23     17     18   2
    24     16     17   1
    25     15     16   2
    26     15     20   1
    27     14     15   1
    28     14     21   1
    29     11     14   1
    30     27     28   2
    31     28     29   1
    32     29     30   2
    33     30     31   1
    34     31     32   2
    35     32     27   1
    36     29     33   1
    37      7     27   1
    38      1     34   1
    39      2     35   1
    40      3     36   1
    41      5     37   1
    42      6     38   1
    43      9     39   1
    44     10     40   1
    45     12     41   1
    46     13     42   1
    47     16     43   1
    48     17     44   1
    49     18     45   1
    50     19     46   1
    51     20     47   1
    52     22     48   1
    53     23     49   1
    54     24     50   1
    55     25     51   1
    56     26     52   1
    57     28     53   1
    58     30     54   1
    59     32     55   1
    60     56     57   2
    61     57     58   1
    62     58     59   2
    63     59     60   1
    64     60     61   2
    65     61     56   1
    66     59     62   1
    67     62     63   1
    68     63     64   2
    69     64     60   1
    70     57     65   1
    71     58     66   1
    72     61     67   1
    73     62     68   1
    74     63     69   1
    75     64     70   1
    76     31     56   1
