# Produced with molli package
@<TRIPOS>MOLECULE
J_10_T
69 74 0 0 0
SMALL
USER_CHARGES

@<TRIPOS>ATOM
     1 C      -5.076910     4.262408    -1.162819 C          1 UNL1 0.000
     2 C      -5.620759     3.162616    -1.820305 C          1 UNL1 0.000
     3 C      -5.020806     1.902962    -1.703338 C          1 UNL1 0.000
     4 C      -3.888934     1.706458    -0.895154 C          1 UNL1 0.000
     5 C      -3.344631     2.843355    -0.262067 C          1 UNL1 0.000
     6 C      -3.929890     4.106060    -0.393592 C          1 UNL1 0.000
     7 N      -3.261054     0.410777    -0.738335 N          1 UNL1 0.000
     8 C      -3.983339    -0.846116    -0.687486 C          1 UNL1 0.000
     9 C      -5.368747    -0.909870    -0.453685 C          1 UNL1 0.000
    10 C      -6.068190    -2.124342    -0.490880 C          1 UNL1 0.000
    11 C      -5.388641    -3.332998    -0.669403 C          1 UNL1 0.000
    12 C      -3.999669    -3.301657    -0.816275 C          1 UNL1 0.000
    13 C      -3.315486    -2.079042    -0.848023 C          1 UNL1 0.000
    14 N      -6.100728    -4.580597    -0.690913 N          1 UNL1 0.000
    15 C      -6.354588    -5.254075     0.567359 C          1 UNL1 0.000
    16 C      -6.493267    -4.537471     1.772244 C          1 UNL1 0.000
    17 C      -6.765170    -5.182706     2.983648 C          1 UNL1 0.000
    18 C      -6.890292    -6.566258     3.023718 C          1 UNL1 0.000
    19 C      -6.720154    -7.304987     1.857661 C          1 UNL1 0.000
    20 C      -6.441390    -6.656717     0.648485 C          1 UNL1 0.000
    21 C      -6.535962    -5.108316    -1.970043 C          1 UNL1 0.000
    22 C      -7.695886    -5.898057    -2.085620 C          1 UNL1 0.000
    23 C      -8.100325    -6.433235    -3.314794 C          1 UNL1 0.000
    24 C      -7.369109    -6.167164    -4.467364 C          1 UNL1 0.000
    25 C      -6.243753    -5.354756    -4.392900 C          1 UNL1 0.000
    26 C      -5.837859    -4.827397    -3.161225 C          1 UNL1 0.000
    27 C      -1.821894     0.390835    -0.741013 C          1 UNL1 0.000
    28 C      -1.124390     0.502871    -1.951907 C          1 UNL1 0.000
    29 C       0.261766     0.507125    -1.942514 C          1 UNL1 0.000
    30 C       0.975855     0.432319    -0.752978 C          1 UNL1 0.000
    31 C       0.298316     0.341918     0.472711 C          1 UNL1 0.000
    32 C      -1.104475     0.295546     0.463433 C          1 UNL1 0.000
    33 F       0.927699     0.601991    -3.103389 F          1 UNL1 0.000
    34 H      -5.539856     5.241040    -1.257681 H          1 UNL1 0.000
    35 H      -6.509977     3.283393    -2.433590 H          1 UNL1 0.000
    36 H      -5.445281     1.078566    -2.270222 H          1 UNL1 0.000
    37 H      -2.458567     2.758649     0.361066 H          1 UNL1 0.000
    38 H      -3.487958     4.962002     0.109856 H          1 UNL1 0.000
    39 H      -5.941357    -0.014165    -0.231862 H          1 UNL1 0.000
    40 H      -7.146482    -2.127780    -0.350901 H          1 UNL1 0.000
    41 H      -3.447777    -4.230458    -0.938294 H          1 UNL1 0.000
    42 H      -2.241703    -2.118736    -1.010326 H          1 UNL1 0.000
    43 H      -6.411292    -3.455336     1.793039 H          1 UNL1 0.000
    44 H      -6.881050    -4.597069     3.892013 H          1 UNL1 0.000
    45 H      -7.108746    -7.067010     3.962935 H          1 UNL1 0.000
    46 H      -6.798495    -8.388614     1.884850 H          1 UNL1 0.000
    47 H      -6.277792    -7.270767    -0.233612 H          1 UNL1 0.000
    48 H      -8.315410    -6.097879    -1.214973 H          1 UNL1 0.000
    49 H      -8.991205    -7.053562    -3.367831 H          1 UNL1 0.000
    50 H      -7.680473    -6.582438    -5.422084 H          1 UNL1 0.000
    51 H      -5.673740    -5.129251    -5.290678 H          1 UNL1 0.000
    52 H      -4.948416    -4.205084    -3.155475 H          1 UNL1 0.000
    53 H      -1.658850     0.580859    -2.892584 H          1 UNL1 0.000
    54 H       2.061186     0.468163    -0.784915 H          1 UNL1 0.000
    55 H      -1.652082     0.223938     1.402642 H          1 UNL1 0.000
    56 C       1.043250     0.360447     1.731718 C          1 UNL1 0.000
    57 C       1.637823    -0.799563     2.243711 C          1 UNL1 0.000
    58 C       2.375301    -0.758166     3.431220 C          1 UNL1 0.000
    59 C       2.525199     0.442816     4.134278 C          1 UNL1 0.000
    60 C       1.940256     1.605397     3.622965 C          1 UNL1 0.000
    61 C       1.202054     1.562294     2.438211 C          1 UNL1 0.000
    62 C       3.357734     0.501475     5.380408 C          1 UNL1 0.000
    63 H       1.534906    -1.744898     1.715107 H          1 UNL1 0.000
    64 H       2.835600    -1.671644     3.801392 H          1 UNL1 0.000
    65 H       2.059641     2.554882     4.140175 H          1 UNL1 0.000
    66 H       0.760218     2.480735     2.056602 H          1 UNL1 0.000
    67 H       2.955609     1.240009     6.082026 H          1 UNL1 0.000
    68 H       4.387105     0.775480     5.128989 H          1 UNL1 0.000
    69 H       3.365231    -0.465224     5.894340 H          1 UNL1 0.000
@<TRIPOS>BOND
     1      1      2   2
     2      2      3   1
     3      3      4   2
     4      4      5   1
     5      5      6   2
     6      6      1   1
     7      4      7   1
     8      7      8   1
     9      8      9   2
    10      9     10   1
    11     10     11   2
    12     11     12   1
    13     12     13   2
    14     13      8   1
    15     25     26   2
    16     24     25   1
    17     23     24   2
    18     22     23   1
    19     21     22   2
    20     21     26   1
    21     19     20   2
    22     18     19   1
    23     17     18   2
    24     16     17   1
    25     15     16   2
    26     15     20   1
    27     14     15   1
    28     14     21   1
    29     11     14   1
    30     27     28   2
    31     28     29   1
    32     29     30   2
    33     30     31   1
    34     31     32   2
    35     32     27   1
    36     29     33   1
    37      7     27   1
    38      1     34   1
    39      2     35   1
    40      3     36   1
    41      5     37   1
    42      6     38   1
    43      9     39   1
    44     10     40   1
    45     12     41   1
    46     13     42   1
    47     16     43   1
    48     17     44   1
    49     18     45   1
    50     19     46   1
    51     20     47   1
    52     22     48   1
    53     23     49   1
    54     24     50   1
    55     25     51   1
    56     26     52   1
    57     28     53   1
    58     30     54   1
    59     32     55   1
    60     56     57   2
    61     57     58   1
    62     58     59   2
    63     59     60   1
    64     60     61   2
    65     61     56   1
    66     59     62   1
    67     57     63   1
    68     58     64   1
    69     60     65   1
    70     61     66   1
    71     62     67   1
    72     62     68   1
    73     62     69   1
    74     31     56   1
