# Produced with molli package
@<TRIPOS>MOLECULE
J_10_O
65 70 0 0 0
SMALL
USER_CHARGES

@<TRIPOS>ATOM
     1 C      -5.200078     4.137559    -0.970236 C          1 UNL1 0.000
     2 C      -5.793393     2.997219    -1.503829 C          1 UNL1 0.000
     3 C      -5.148860     1.758299    -1.410401 C          1 UNL1 0.000
     4 C      -3.905752     1.628416    -0.766158 C          1 UNL1 0.000
     5 C      -3.321815     2.802003    -0.248260 C          1 UNL1 0.000
     6 C      -3.961040     4.041646    -0.346768 C          1 UNL1 0.000
     7 N      -3.223250     0.355148    -0.670799 N          1 UNL1 0.000
     8 C      -3.919391    -0.909300    -0.631393 C          1 UNL1 0.000
     9 C      -5.161494    -1.041357     0.014411 C          1 UNL1 0.000
    10 C      -5.860984    -2.254954     0.008641 C          1 UNL1 0.000
    11 C      -5.335705    -3.379608    -0.641506 C          1 UNL1 0.000
    12 C      -4.078245    -3.272237    -1.248013 C          1 UNL1 0.000
    13 C      -3.377006    -2.060960    -1.230093 C          1 UNL1 0.000
    14 N      -6.072766    -4.616237    -0.692241 N          1 UNL1 0.000
    15 C      -6.525548    -5.209068     0.545733 C          1 UNL1 0.000
    16 C      -5.756851    -5.094350     1.720415 C          1 UNL1 0.000
    17 C      -6.182549    -5.659977     2.925389 C          1 UNL1 0.000
    18 C      -7.386513    -6.355174     2.980538 C          1 UNL1 0.000
    19 C      -8.168425    -6.476340     1.834744 C          1 UNL1 0.000
    20 C      -7.745675    -5.902016     0.631302 C          1 UNL1 0.000
    21 C      -6.346160    -5.216513    -1.980531 C          1 UNL1 0.000
    22 C      -6.424090    -6.610658    -2.145979 C          1 UNL1 0.000
    23 C      -6.701178    -7.178379    -3.394765 C          1 UNL1 0.000
    24 C      -6.888175    -6.363863    -4.508319 C          1 UNL1 0.000
    25 C      -6.797362    -4.982124    -4.375564 C          1 UNL1 0.000
    26 C      -6.531284    -4.415795    -3.125255 C          1 UNL1 0.000
    27 C      -1.787810     0.358520    -0.735860 C          1 UNL1 0.000
    28 C      -1.139794     0.521202    -1.965849 C          1 UNL1 0.000
    29 C       0.244767     0.578320    -2.005524 C          1 UNL1 0.000
    30 C       1.001568     0.527825    -0.839785 C          1 UNL1 0.000
    31 C       0.375944     0.394977     0.409954 C          1 UNL1 0.000
    32 C      -1.024096     0.266982     0.440720 C          1 UNL1 0.000
    33 F       0.865847     0.707947    -3.185596 F          1 UNL1 0.000
    34 H      -5.698949     5.100051    -1.045808 H          1 UNL1 0.000
    35 H      -6.756516     3.069354    -2.002374 H          1 UNL1 0.000
    36 H      -5.624856     0.896944    -1.871804 H          1 UNL1 0.000
    37 H      -2.360735     2.766503     0.257222 H          1 UNL1 0.000
    38 H      -3.487350     4.928375     0.066333 H          1 UNL1 0.000
    39 H      -5.602179    -0.195584     0.536890 H          1 UNL1 0.000
    40 H      -6.832415    -2.312116     0.493996 H          1 UNL1 0.000
    41 H      -3.633531    -4.137830    -1.733535 H          1 UNL1 0.000
    42 H      -2.408782    -2.031908    -1.721689 H          1 UNL1 0.000
    43 H      -4.802451    -4.572711     1.703467 H          1 UNL1 0.000
    44 H      -5.568567    -5.557853     3.816346 H          1 UNL1 0.000
    45 H      -7.716228    -6.798868     3.916172 H          1 UNL1 0.000
    46 H      -9.112354    -7.013465     1.875404 H          1 UNL1 0.000
    47 H      -8.390936    -5.988216    -0.239423 H          1 UNL1 0.000
    48 H      -6.253593    -7.274933    -1.302418 H          1 UNL1 0.000
    49 H      -6.764817    -8.258718    -3.495587 H          1 UNL1 0.000
    50 H      -7.100378    -6.805025    -5.478646 H          1 UNL1 0.000
    51 H      -6.936625    -4.339965    -5.241330 H          1 UNL1 0.000
    52 H      -6.485715    -3.331790    -3.051506 H          1 UNL1 0.000
    53 H      -1.709903     0.594638    -2.886121 H          1 UNL1 0.000
    54 H       2.083226     0.595241    -0.917071 H          1 UNL1 0.000
    55 H      -1.533051     0.154134     1.397449 H          1 UNL1 0.000
    56 C       1.152169     0.447539     1.654155 C          1 UNL1 0.000
    57 N       0.980434    -0.586901     2.511382 N          1 UNL1 0.000
    58 C       1.680030    -0.556913     3.667974 C          1 UNL1 0.000
    59 C       2.537514     0.469372     4.028109 C          1 UNL1 0.000
    60 C       2.692159     1.532066     3.148463 C          1 UNL1 0.000
    61 C       1.994879     1.522005     1.943913 C          1 UNL1 0.000
    62 H       1.526636    -1.410797     4.321832 H          1 UNL1 0.000
    63 H       3.068924     0.442463     4.972644 H          1 UNL1 0.000
    64 H       3.345605     2.363461     3.396804 H          1 UNL1 0.000
    65 H       2.094886     2.352486     1.251876 H          1 UNL1 0.000
@<TRIPOS>BOND
     1      1      2   2
     2      2      3   1
     3      3      4   2
     4      4      5   1
     5      5      6   2
     6      6      1   1
     7      4      7   1
     8      7      8   1
     9      8      9   2
    10      9     10   1
    11     10     11   2
    12     11     12   1
    13     12     13   2
    14     13      8   1
    15     25     26   2
    16     24     25   1
    17     23     24   2
    18     22     23   1
    19     21     22   2
    20     21     26   1
    21     19     20   2
    22     18     19   1
    23     17     18   2
    24     16     17   1
    25     15     16   2
    26     15     20   1
    27     14     15   1
    28     14     21   1
    29     11     14   1
    30     27     28   2
    31     28     29   1
    32     29     30   2
    33     30     31   1
    34     31     32   2
    35     32     27   1
    36     29     33   1
    37      7     27   1
    38      1     34   1
    39      2     35   1
    40      3     36   1
    41      5     37   1
    42      6     38   1
    43      9     39   1
    44     10     40   1
    45     12     41   1
    46     13     42   1
    47     16     43   1
    48     17     44   1
    49     18     45   1
    50     19     46   1
    51     20     47   1
    52     22     48   1
    53     23     49   1
    54     24     50   1
    55     25     51   1
    56     26     52   1
    57     28     53   1
    58     30     54   1
    59     32     55   1
    60     56     57   2
    61     57     58   1
    62     58     59   2
    63     59     60   1
    64     60     61   2
    65     61     56   1
    66     58     62   1
    67     59     63   1
    68     60     64   1
    69     61     65   1
    70     31     56   1
