# Produced with molli package
@<TRIPOS>MOLECULE
J_10_Q
64 69 0 0 0
SMALL
USER_CHARGES

@<TRIPOS>ATOM
     1 C      -5.090349     4.241525    -0.387134 C          1 UNL1 0.000
     2 C      -5.602953     3.136018     0.285690 C          1 UNL1 0.000
     3 C      -4.978073     1.888867     0.170093 C          1 UNL1 0.000
     4 C      -3.850110     1.711738    -0.648707 C          1 UNL1 0.000
     5 C      -3.335218     2.853742    -1.295118 C          1 UNL1 0.000
     6 C      -3.948132     4.103864    -1.167999 C          1 UNL1 0.000
     7 N      -3.209385     0.425077    -0.812343 N          1 UNL1 0.000
     8 C      -3.925175    -0.834364    -0.876490 C          1 UNL1 0.000
     9 C      -5.304377    -0.901881    -1.143028 C          1 UNL1 0.000
    10 C      -5.997742    -2.119587    -1.125467 C          1 UNL1 0.000
    11 C      -5.316645    -3.324836    -0.927027 C          1 UNL1 0.000
    12 C      -3.932238    -3.288062    -0.744992 C          1 UNL1 0.000
    13 C      -3.255335    -2.063098    -0.695168 C          1 UNL1 0.000
    14 N      -6.025865    -4.573344    -0.907999 N          1 UNL1 0.000
    15 C      -6.504136    -5.067752     0.367619 C          1 UNL1 0.000
    16 C      -5.786937    -4.845468     1.559294 C          1 UNL1 0.000
    17 C      -6.239346    -5.335845     2.789298 C          1 UNL1 0.000
    18 C      -7.429821    -6.050276     2.859742 C          1 UNL1 0.000
    19 C      -8.176065    -6.258112     1.704237 C          1 UNL1 0.000
    20 C      -7.723634    -5.761991     0.475949 C          1 UNL1 0.000
    21 C      -6.275073    -5.259201    -2.159858 C          1 UNL1 0.000
    22 C      -6.438400    -6.656706    -2.212442 C          1 UNL1 0.000
    23 C      -6.713086    -7.318473    -3.415042 C          1 UNL1 0.000
    24 C      -6.804124    -6.600295    -4.602371 C          1 UNL1 0.000
    25 C      -6.602880    -5.225054    -4.589371 C          1 UNL1 0.000
    26 C      -6.333384    -4.565887    -3.384614 C          1 UNL1 0.000
    27 C      -1.771391     0.410885    -0.847712 C          1 UNL1 0.000
    28 C      -1.090838     0.252713    -2.059079 C          1 UNL1 0.000
    29 C       0.297120     0.252730    -2.066045 C          1 UNL1 0.000
    30 C       1.026526     0.385168    -0.887201 C          1 UNL1 0.000
    31 C       0.366771     0.519032     0.342865 C          1 UNL1 0.000
    32 C      -1.038056     0.541827     0.345682 C          1 UNL1 0.000
    33 F       0.949448     0.117627    -3.227647 F          1 UNL1 0.000
    34 H      -5.575426     5.209939    -0.297320 H          1 UNL1 0.000
    35 H      -6.488894     3.241829     0.906541 H          1 UNL1 0.000
    36 H      -5.381279     1.056174     0.740860 H          1 UNL1 0.000
    37 H      -2.456560     2.780652    -1.930212 H          1 UNL1 0.000
    38 H      -3.534004     4.964741    -1.686539 H          1 UNL1 0.000
    39 H      -5.874397    -0.006639    -1.373843 H          1 UNL1 0.000
    40 H      -7.072217    -2.128729    -1.291671 H          1 UNL1 0.000
    41 H      -3.379308    -4.213689    -0.605178 H          1 UNL1 0.000
    42 H      -2.187154    -2.096390    -0.496142 H          1 UNL1 0.000
    43 H      -4.847255    -4.302035     1.552983 H          1 UNL1 0.000
    44 H      -5.654939    -5.158597     3.688576 H          1 UNL1 0.000
    45 H      -7.778791    -6.435686     3.813934 H          1 UNL1 0.000
    46 H      -9.115532    -6.802099     1.754849 H          1 UNL1 0.000
    47 H      -8.349668    -5.912589    -0.400042 H          1 UNL1 0.000
    48 H      -6.338992    -7.257376    -1.311734 H          1 UNL1 0.000
    49 H      -6.850209    -8.396568    -3.419847 H          1 UNL1 0.000
    50 H      -7.019820    -7.111371    -5.536657 H          1 UNL1 0.000
    51 H      -6.656683    -4.656826    -5.514444 H          1 UNL1 0.000
    52 H      -6.187737    -3.490953    -3.427531 H          1 UNL1 0.000
    53 H      -1.635962     0.140759    -2.990697 H          1 UNL1 0.000
    54 H       2.111701     0.350693    -0.939563 H          1 UNL1 0.000
    55 H      -1.574548     0.633631     1.289431 H          1 UNL1 0.000
    56 C       1.116006     0.589734     1.596474 C          1 UNL1 0.000
    57 N       0.962953    -0.462940     2.440520 N          1 UNL1 0.000
    58 C       1.687524    -0.415460     3.582536 C          1 UNL1 0.000
    59 C       2.526877     0.641963     3.887575 C          1 UNL1 0.000
    60 N       2.682084     1.702300     3.064523 N          1 UNL1 0.000
    61 C       1.960879     1.649998     1.916416 C          1 UNL1 0.000
    62 H       1.576862    -1.262220     4.250316 H          1 UNL1 0.000
    63 H       3.100810     0.663236     4.807043 H          1 UNL1 0.000
    64 H       2.080461     2.500436     1.253699 H          1 UNL1 0.000
@<TRIPOS>BOND
     1      1      2   2
     2      2      3   1
     3      3      4   2
     4      4      5   1
     5      5      6   2
     6      6      1   1
     7      4      7   1
     8      7      8   1
     9      8      9   2
    10      9     10   1
    11     10     11   2
    12     11     12   1
    13     12     13   2
    14     13      8   1
    15     25     26   2
    16     24     25   1
    17     23     24   2
    18     22     23   1
    19     21     22   2
    20     21     26   1
    21     19     20   2
    22     18     19   1
    23     17     18   2
    24     16     17   1
    25     15     16   2
    26     15     20   1
    27     14     15   1
    28     14     21   1
    29     11     14   1
    30     27     28   2
    31     28     29   1
    32     29     30   2
    33     30     31   1
    34     31     32   2
    35     32     27   1
    36     29     33   1
    37      7     27   1
    38      1     34   1
    39      2     35   1
    40      3     36   1
    41      5     37   1
    42      6     38   1
    43      9     39   1
    44     10     40   1
    45     12     41   1
    46     13     42   1
    47     16     43   1
    48     17     44   1
    49     18     45   1
    50     19     46   1
    51     20     47   1
    52     22     48   1
    53     23     49   1
    54     24     50   1
    55     25     51   1
    56     26     52   1
    57     28     53   1
    58     30     54   1
    59     32     55   1
    60     56     57   2
    61     57     58   1
    62     58     59   2
    63     59     60   1
    64     60     61   2
    65     61     56   1
    66     58     62   1
    67     59     63   1
    68     61     64   1
    69     31     56   1
