# Produced with molli package
@<TRIPOS>MOLECULE
J_10_N
63 68 0 0 0
SMALL
USER_CHARGES

@<TRIPOS>ATOM
     1 C      -5.250515     4.179400    -1.045823 C          1 UNL1 0.000
     2 C      -5.772761     3.077119    -1.716954 C          1 UNL1 0.000
     3 C      -5.148327     1.828332    -1.615280 C          1 UNL1 0.000
     4 C      -4.010585     1.646633    -0.811934 C          1 UNL1 0.000
     5 C      -3.488567     2.785336    -0.163900 C          1 UNL1 0.000
     6 C      -4.100319     4.036889    -0.278231 C          1 UNL1 0.000
     7 N      -3.358694     0.361554    -0.672103 N          1 UNL1 0.000
     8 C      -4.062768    -0.903720    -0.607759 C          1 UNL1 0.000
     9 C      -5.440388    -0.984008    -0.336014 C          1 UNL1 0.000
    10 C      -6.125151    -2.206756    -0.357002 C          1 UNL1 0.000
    11 C      -5.436323    -3.405853    -0.563669 C          1 UNL1 0.000
    12 C      -4.052753    -3.357085    -0.750936 C          1 UNL1 0.000
    13 C      -3.384373    -2.126462    -0.795869 C          1 UNL1 0.000
    14 N      -6.135316    -4.659919    -0.578171 N          1 UNL1 0.000
    15 C      -6.359347    -5.354074     0.673442 C          1 UNL1 0.000
    16 C      -6.429965    -4.664942     1.899505 C          1 UNL1 0.000
    17 C      -6.673483    -5.334576     3.103897 C          1 UNL1 0.000
    18 C      -6.835389    -6.715218     3.114443 C          1 UNL1 0.000
    19 C      -6.733288    -7.427811     1.924576 C          1 UNL1 0.000
    20 C      -6.485999    -6.755611     0.722112 C          1 UNL1 0.000
    21 C      -6.623511    -5.160248    -1.847157 C          1 UNL1 0.000
    22 C      -7.838903    -5.864666    -1.938403 C          1 UNL1 0.000
    23 C      -8.300592    -6.371037    -3.158816 C          1 UNL1 0.000
    24 C      -7.567131    -6.165073    -4.322756 C          1 UNL1 0.000
    25 C      -6.381029    -5.441443    -4.268626 C          1 UNL1 0.000
    26 C      -5.919904    -4.939120    -3.046553 C          1 UNL1 0.000
    27 C      -1.919821     0.366058    -0.671521 C          1 UNL1 0.000
    28 C      -1.219818     0.550498    -1.871770 C          1 UNL1 0.000
    29 C       0.167774     0.598965    -1.856948 C          1 UNL1 0.000
    30 C       0.879483     0.498911    -0.667244 C          1 UNL1 0.000
    31 C       0.190410     0.323635     0.536420 C          1 UNL1 0.000
    32 C      -1.207118     0.232869     0.531250 C          1 UNL1 0.000
    33 F       0.833067     0.761643    -3.008571 F          1 UNL1 0.000
    34 H      -5.733659     5.149463    -1.127612 H          1 UNL1 0.000
    35 H      -6.664965     3.187729    -2.327869 H          1 UNL1 0.000
    36 H      -5.558009     1.000083    -2.187601 H          1 UNL1 0.000
    37 H      -2.601304     2.709688     0.459018 H          1 UNL1 0.000
    38 H      -3.677203     4.894958     0.237695 H          1 UNL1 0.000
    39 H      -6.016871    -0.094853    -0.097629 H          1 UNL1 0.000
    40 H      -7.198763    -2.224342    -0.185509 H          1 UNL1 0.000
    41 H      -3.494020    -4.278507    -0.895516 H          1 UNL1 0.000
    42 H      -2.316181    -2.150392    -0.994145 H          1 UNL1 0.000
    43 H      -6.316216    -3.586227     1.943105 H          1 UNL1 0.000
    44 H      -6.738513    -4.770537     4.030816 H          1 UNL1 0.000
    45 H      -7.030289    -7.234554     4.048774 H          1 UNL1 0.000
    46 H      -6.840874    -8.509271     1.927302 H          1 UNL1 0.000
    47 H      -6.378684    -7.350015    -0.181949 H          1 UNL1 0.000
    48 H      -8.453292    -6.016237    -1.054236 H          1 UNL1 0.000
    49 H      -9.236450    -6.922326    -3.196580 H          1 UNL1 0.000
    50 H      -7.922485    -6.559735    -5.270873 H          1 UNL1 0.000
    51 H      -5.806822    -5.267246    -5.175074 H          1 UNL1 0.000
    52 H      -4.983957    -4.389444    -3.051709 H          1 UNL1 0.000
    53 H      -1.751991     0.653587    -2.812089 H          1 UNL1 0.000
    54 H       1.963103     0.565362    -0.691077 H          1 UNL1 0.000
    55 H      -1.755566     0.113562     1.463674 H          1 UNL1 0.000
    56 C       0.919258     0.312490     1.791406 C          1 UNL1 0.000
    57 C       0.986241    -0.812951     2.587300 C          1 UNL1 0.000
    58 S       1.897627    -0.544122     4.012849 S          1 UNL1 0.000
    59 C       2.204278     1.081635     3.578699 C          1 UNL1 0.000
    60 C       1.632372     1.409325     2.369439 C          1 UNL1 0.000
    61 H       0.550842    -1.786640     2.406947 H          1 UNL1 0.000
    62 H       2.786978     1.719164     4.229551 H          1 UNL1 0.000
    63 H       1.709425     2.395020     1.925689 H          1 UNL1 0.000
@<TRIPOS>BOND
     1      1      2   2
     2      2      3   1
     3      3      4   2
     4      4      5   1
     5      5      6   2
     6      6      1   1
     7      4      7   1
     8      7      8   1
     9      8      9   2
    10      9     10   1
    11     10     11   2
    12     11     12   1
    13     12     13   2
    14     13      8   1
    15     25     26   2
    16     24     25   1
    17     23     24   2
    18     22     23   1
    19     21     22   2
    20     21     26   1
    21     19     20   2
    22     18     19   1
    23     17     18   2
    24     16     17   1
    25     15     16   2
    26     15     20   1
    27     14     15   1
    28     14     21   1
    29     11     14   1
    30     27     28   2
    31     28     29   1
    32     29     30   2
    33     30     31   1
    34     31     32   2
    35     32     27   1
    36     29     33   1
    37      7     27   1
    38      1     34   1
    39      2     35   1
    40      3     36   1
    41      5     37   1
    42      6     38   1
    43      9     39   1
    44     10     40   1
    45     12     41   1
    46     13     42   1
    47     16     43   1
    48     17     44   1
    49     18     45   1
    50     19     46   1
    51     20     47   1
    52     22     48   1
    53     23     49   1
    54     24     50   1
    55     25     51   1
    56     26     52   1
    57     28     53   1
    58     30     54   1
    59     32     55   1
    60     56     57   2
    61     57     58   1
    62     58     59   1
    63     59     60   2
    64     60     56   1
    65     57     61   1
    66     59     62   1
    67     60     63   1
    68     31     56   1
