# Produced with molli package
@<TRIPOS>MOLECULE
J_10_K
68 73 0 0 0
SMALL
USER_CHARGES

@<TRIPOS>ATOM
     1 C      -5.065258     4.300090    -0.539002 C          1 UNL1 0.000
     2 C      -5.710046     3.201954     0.020501 C          1 UNL1 0.000
     3 C      -5.102025     1.939750     0.000902 C          1 UNL1 0.000
     4 C      -3.863111     1.730763    -0.628022 C          1 UNL1 0.000
     5 C      -3.217601     2.872291    -1.151034 C          1 UNL1 0.000
     6 C      -3.807930     4.139594    -1.106942 C          1 UNL1 0.000
     7 N      -3.242705     0.423272    -0.725753 N          1 UNL1 0.000
     8 C      -3.966623    -0.833685    -0.816553 C          1 UNL1 0.000
     9 C      -5.329831    -0.905705    -1.149830 C          1 UNL1 0.000
    10 C      -6.029781    -2.120457    -1.133140 C          1 UNL1 0.000
    11 C      -5.363365    -3.325721    -0.889214 C          1 UNL1 0.000
    12 C      -3.986013    -3.290567    -0.660378 C          1 UNL1 0.000
    13 C      -3.310175    -2.065335    -0.594993 C          1 UNL1 0.000
    14 N      -6.081231    -4.573626    -0.865313 N          1 UNL1 0.000
    15 C      -6.519327    -5.074800     0.430182 C          1 UNL1 0.000
    16 C      -5.864072    -4.698961     1.623673 C          1 UNL1 0.000
    17 C      -6.260362    -5.182909     2.876492 C          1 UNL1 0.000
    18 C      -7.333364    -6.057386     2.975672 C          1 UNL1 0.000
    19 C      -8.028440    -6.416476     1.826647 C          1 UNL1 0.000
    20 C      -7.640599    -5.911680     0.576849 C          1 UNL1 0.000
    21 C      -6.363722    -5.227430    -2.133608 C          1 UNL1 0.000
    22 C      -6.600321    -6.610801    -2.232105 C          1 UNL1 0.000
    23 C      -6.936642    -7.218074    -3.450496 C          1 UNL1 0.000
    24 C      -6.993714    -6.465004    -4.617519 C          1 UNL1 0.000
    25 C      -6.690886    -5.111425    -4.569702 C          1 UNL1 0.000
    26 C      -6.374247    -4.506762    -3.347420 C          1 UNL1 0.000
    27 C      -1.802870     0.378682    -0.745123 C          1 UNL1 0.000
    28 C      -1.118457     0.215965    -1.955346 C          1 UNL1 0.000
    29 C       0.267649     0.174486    -1.953151 C          1 UNL1 0.000
    30 C       0.989484     0.257393    -0.766378 C          1 UNL1 0.000
    31 C       0.325343     0.397172     0.460953 C          1 UNL1 0.000
    32 C      -1.076442     0.479692     0.456391 C          1 UNL1 0.000
    33 F       0.924877     0.047185    -3.113135 F          1 UNL1 0.000
    34 H      -5.535902     5.279475    -0.523168 H          1 UNL1 0.000
    35 H      -6.688238     3.324152     0.478830 H          1 UNL1 0.000
    36 H      -5.618058     1.123709     0.499118 H          1 UNL1 0.000
    37 H      -2.243293     2.793611    -1.625535 H          1 UNL1 0.000
    38 H      -3.284541     4.994487    -1.527410 H          1 UNL1 0.000
    39 H      -5.886994    -0.019736    -1.437653 H          1 UNL1 0.000
    40 H      -7.097525    -2.128217    -1.339719 H          1 UNL1 0.000
    41 H      -3.442111    -4.216334    -0.488450 H          1 UNL1 0.000
    42 H      -2.251340    -2.102172    -0.353464 H          1 UNL1 0.000
    43 H      -5.017334    -4.020410     1.612159 H          1 UNL1 0.000
    44 H      -5.723781    -4.871912     3.769355 H          1 UNL1 0.000
    45 H      -7.635813    -6.443435     3.945274 H          1 UNL1 0.000
    46 H      -8.883356    -7.083955     1.898352 H          1 UNL1 0.000
    47 H      -8.254744    -6.175233    -0.279294 H          1 UNL1 0.000
    48 H      -6.514267    -7.252994    -1.360086 H          1 UNL1 0.000
    49 H      -7.147747    -8.283831    -3.483588 H          1 UNL1 0.000
    50 H      -7.255614    -6.932935    -5.562479 H          1 UNL1 0.000
    51 H      -6.702291    -4.515405    -5.478734 H          1 UNL1 0.000
    52 H      -6.146797    -3.446037    -3.375527 H          1 UNL1 0.000
    53 H      -1.660604     0.138046    -2.892154 H          1 UNL1 0.000
    54 H       2.074408     0.209683    -0.810121 H          1 UNL1 0.000
    55 H      -1.620707     0.584714     1.393745 H          1 UNL1 0.000
    56 C       1.083061     0.420439     1.716377 C          1 UNL1 0.000
    57 C       1.715787    -0.747759     2.181778 C          1 UNL1 0.000
    58 C       2.456946    -0.741970     3.365669 C          1 UNL1 0.000
    59 C       2.575242     0.450470     4.084050 C          1 UNL1 0.000
    60 C       1.955999     1.625262     3.647066 C          1 UNL1 0.000
    61 C       1.204922     1.601715     2.467887 C          1 UNL1 0.000
    62 N       3.366004     0.468302     5.308858 N          1 UNL1 0.000
    63 O       4.039683     1.484444     5.535541 O          1 UNL1 0.000
    64 O       3.313732    -0.531743     6.035742 O          1 UNL1 0.000
    65 H       1.628493    -1.675614     1.617543 H          1 UNL1 0.000
    66 H       2.937474    -1.656332     3.706575 H          1 UNL1 0.000
    67 H       2.049285     2.552135     4.209062 H          1 UNL1 0.000
    68 H       0.723455     2.517076     2.126511 H          1 UNL1 0.000
@<TRIPOS>BOND
     1      1      2   2
     2      2      3   1
     3      3      4   2
     4      4      5   1
     5      5      6   2
     6      6      1   1
     7      4      7   1
     8      7      8   1
     9      8      9   2
    10      9     10   1
    11     10     11   2
    12     11     12   1
    13     12     13   2
    14     13      8   1
    15     25     26   2
    16     24     25   1
    17     23     24   2
    18     22     23   1
    19     21     22   2
    20     21     26   1
    21     19     20   2
    22     18     19   1
    23     17     18   2
    24     16     17   1
    25     15     16   2
    26     15     20   1
    27     14     15   1
    28     14     21   1
    29     11     14   1
    30     27     28   2
    31     28     29   1
    32     29     30   2
    33     30     31   1
    34     31     32   2
    35     32     27   1
    36     29     33   1
    37      7     27   1
    38      1     34   1
    39      2     35   1
    40      3     36   1
    41      5     37   1
    42      6     38   1
    43      9     39   1
    44     10     40   1
    45     12     41   1
    46     13     42   1
    47     16     43   1
    48     17     44   1
    49     18     45   1
    50     19     46   1
    51     20     47   1
    52     22     48   1
    53     23     49   1
    54     24     50   1
    55     25     51   1
    56     26     52   1
    57     28     53   1
    58     30     54   1
    59     32     55   1
    60     56     57   2
    61     57     58   1
    62     58     59   2
    63     59     60   1
    64     60     61   2
    65     61     56   1
    66     62     63   2
    67     62     64   1
    68     59     62   1
    69     57     65   1
    70     58     66   1
    71     60     67   1
    72     61     68   1
    73     31     56   1
