# Produced with molli package
@<TRIPOS>MOLECULE
J_10_S
71 76 0 0 0
SMALL
USER_CHARGES

@<TRIPOS>ATOM
     1 C      -5.210843     4.245979    -1.015024 C          1 UNL1 0.000
     2 C      -5.812298     3.102689    -1.532386 C          1 UNL1 0.000
     3 C      -5.175346     1.861132    -1.423734 C          1 UNL1 0.000
     4 C      -3.932823     1.730784    -0.778224 C          1 UNL1 0.000
     5 C      -3.339637     2.907926    -0.279021 C          1 UNL1 0.000
     6 C      -3.970732     4.150419    -0.393730 C          1 UNL1 0.000
     7 N      -3.261844     0.453577    -0.659853 N          1 UNL1 0.000
     8 C      -3.966864    -0.807006    -0.627141 C          1 UNL1 0.000
     9 C      -5.217298    -0.932478     0.003608 C          1 UNL1 0.000
    10 C      -5.922628    -2.142950    -0.010275 C          1 UNL1 0.000
    11 C      -5.393945    -3.271107    -0.651715 C          1 UNL1 0.000
    12 C      -4.128919    -3.170266    -1.243556 C          1 UNL1 0.000
    13 C      -3.422971    -1.961789    -1.219346 C          1 UNL1 0.000
    14 N      -6.136236    -4.504626    -0.712741 N          1 UNL1 0.000
    15 C      -6.596210    -5.105615     0.519967 C          1 UNL1 0.000
    16 C      -5.855237    -4.962959     1.709963 C          1 UNL1 0.000
    17 C      -6.287739    -5.533424     2.910593 C          1 UNL1 0.000
    18 C      -7.469596    -6.266085     2.946550 C          1 UNL1 0.000
    19 C      -8.223958    -6.417469     1.786369 C          1 UNL1 0.000
    20 C      -7.796723    -5.834272     0.588343 C          1 UNL1 0.000
    21 C      -6.412081    -5.085933    -2.009907 C          1 UNL1 0.000
    22 C      -6.490418    -6.476992    -2.198619 C          1 UNL1 0.000
    23 C      -6.775404    -7.023572    -3.455306 C          1 UNL1 0.000
    24 C      -6.966571    -6.190741    -4.554546 C          1 UNL1 0.000
    25 C      -6.871226    -4.811738    -4.399891 C          1 UNL1 0.000
    26 C      -6.599130    -4.266615    -3.141479 C          1 UNL1 0.000
    27 C      -1.824941     0.441817    -0.677574 C          1 UNL1 0.000
    28 C      -1.133048     0.601975    -1.883750 C          1 UNL1 0.000
    29 C       0.254132     0.612053    -1.879688 C          1 UNL1 0.000
    30 C       0.971897     0.503710    -0.692844 C          1 UNL1 0.000
    31 C       0.300237     0.373921     0.530883 C          1 UNL1 0.000
    32 C      -1.103131     0.315830     0.522663 C          1 UNL1 0.000
    33 F       0.915204     0.745679    -3.036983 F          1 UNL1 0.000
    34 H      -5.703756     5.210557    -1.102802 H          1 UNL1 0.000
    35 H      -6.775905     3.174336    -2.030254 H          1 UNL1 0.000
    36 H      -5.658599     0.998009    -1.874184 H          1 UNL1 0.000
    37 H      -2.376551     2.874214     0.222587 H          1 UNL1 0.000
    38 H      -3.489906     5.040218     0.004259 H          1 UNL1 0.000
    39 H      -5.661541    -0.083876     0.518443 H          1 UNL1 0.000
    40 H      -6.901431    -2.195349     0.460858 H          1 UNL1 0.000
    41 H      -3.684236    -4.038308    -1.724931 H          1 UNL1 0.000
    42 H      -2.451104    -1.936162    -1.703983 H          1 UNL1 0.000
    43 H      -4.916671    -4.413496     1.711069 H          1 UNL1 0.000
    44 H      -5.695953    -5.406181     3.813293 H          1 UNL1 0.000
    45 H      -7.803702    -6.715250     3.878047 H          1 UNL1 0.000
    46 H      -9.150557    -6.985033     1.811226 H          1 UNL1 0.000
    47 H      -8.425522    -5.944454    -0.291580 H          1 UNL1 0.000
    48 H      -6.316324    -7.155794    -1.367483 H          1 UNL1 0.000
    49 H      -6.842741    -8.101970    -3.573674 H          1 UNL1 0.000
    50 H      -7.185496    -6.615470    -5.530752 H          1 UNL1 0.000
    51 H      -7.012609    -4.155236    -5.254519 H          1 UNL1 0.000
    52 H      -6.551307    -3.184006    -3.050975 H          1 UNL1 0.000
    53 H      -1.670342     0.707737    -2.820711 H          1 UNL1 0.000
    54 H       2.057150     0.546172    -0.730865 H          1 UNL1 0.000
    55 H      -1.649522     0.210391     1.458578 H          1 UNL1 0.000
    56 C       1.049847     0.358747     1.789808 C          1 UNL1 0.000
    57 C       1.772601    -0.770733     2.191146 C          1 UNL1 0.000
    58 C       2.509189    -0.759709     3.381011 C          1 UNL1 0.000
    59 C       2.547169     0.385489     4.188550 C          1 UNL1 0.000
    60 C       1.830070     1.518296     3.793480 C          1 UNL1 0.000
    61 C       1.083760     1.498938     2.608452 C          1 UNL1 0.000
    62 C       3.364534     0.340709     5.440107 C          1 UNL1 0.000
    63 C       3.577749     1.605107     6.233874 C          1 UNL1 0.000
    64 O       3.886720    -0.714253     5.787714 O          1 UNL1 0.000
    65 H       1.768163    -1.671009     1.579451 H          1 UNL1 0.000
    66 H       3.061973    -1.652404     3.669809 H          1 UNL1 0.000
    67 H       1.828626     2.431421     4.380180 H          1 UNL1 0.000
    68 H       0.534611     2.392874     2.315676 H          1 UNL1 0.000
    69 H       3.950587     1.339010     7.228360 H          1 UNL1 0.000
    70 H       2.645468     2.153159     6.381574 H          1 UNL1 0.000
    71 H       4.322153     2.231052     5.735260 H          1 UNL1 0.000
@<TRIPOS>BOND
     1      1      2   2
     2      2      3   1
     3      3      4   2
     4      4      5   1
     5      5      6   2
     6      6      1   1
     7      4      7   1
     8      7      8   1
     9      8      9   2
    10      9     10   1
    11     10     11   2
    12     11     12   1
    13     12     13   2
    14     13      8   1
    15     25     26   2
    16     24     25   1
    17     23     24   2
    18     22     23   1
    19     21     22   2
    20     21     26   1
    21     19     20   2
    22     18     19   1
    23     17     18   2
    24     16     17   1
    25     15     16   2
    26     15     20   1
    27     14     15   1
    28     14     21   1
    29     11     14   1
    30     27     28   2
    31     28     29   1
    32     29     30   2
    33     30     31   1
    34     31     32   2
    35     32     27   1
    36     29     33   1
    37      7     27   1
    38      1     34   1
    39      2     35   1
    40      3     36   1
    41      5     37   1
    42      6     38   1
    43      9     39   1
    44     10     40   1
    45     12     41   1
    46     13     42   1
    47     16     43   1
    48     17     44   1
    49     18     45   1
    50     19     46   1
    51     20     47   1
    52     22     48   1
    53     23     49   1
    54     24     50   1
    55     25     51   1
    56     26     52   1
    57     28     53   1
    58     30     54   1
    59     32     55   1
    60     56     57   2
    61     57     58   1
    62     58     59   2
    63     59     60   1
    64     60     61   2
    65     61     56   1
    66     59     62   1
    67     62     63   1
    68     62     64   2
    69     57     65   1
    70     58     66   1
    71     60     67   1
    72     61     68   1
    73     63     69   1
    74     63     70   1
    75     63     71   1
    76     31     56   1
