# Produced with molli package
@<TRIPOS>MOLECULE
J_10_P
70 75 0 0 0
SMALL
USER_CHARGES

@<TRIPOS>ATOM
     1 C      -5.097863     4.298701    -1.161221 C          1 UNL1 0.000
     2 C      -5.604583     3.195791    -1.842695 C          1 UNL1 0.000
     3 C      -4.988429     1.945328    -1.716570 C          1 UNL1 0.000
     4 C      -3.876093     1.762062    -0.878148 C          1 UNL1 0.000
     5 C      -3.367524     2.901465    -0.221950 C          1 UNL1 0.000
     6 C      -3.970784     4.154943    -0.360020 C          1 UNL1 0.000
     7 N      -3.237537     0.473833    -0.711555 N          1 UNL1 0.000
     8 C      -3.952820    -0.786741    -0.667242 C          1 UNL1 0.000
     9 C      -5.338934    -0.855413    -0.438024 C          1 UNL1 0.000
    10 C      -6.033644    -2.071922    -0.480827 C          1 UNL1 0.000
    11 C      -5.349267    -3.276929    -0.665109 C          1 UNL1 0.000
    12 C      -3.959884    -3.240589    -0.807306 C          1 UNL1 0.000
    13 C      -3.279345    -2.015916    -0.829807 C          1 UNL1 0.000
    14 N      -6.057848    -4.525211    -0.702511 N          1 UNL1 0.000
    15 C      -6.310077    -5.220961     0.542578 C          1 UNL1 0.000
    16 C      -6.452300    -4.527775     1.760015 C          1 UNL1 0.000
    17 C      -6.723980    -5.198380     2.957590 C          1 UNL1 0.000
    18 C      -6.843371    -6.583354     2.970031 C          1 UNL1 0.000
    19 C      -6.670469    -7.298601     1.789768 C          1 UNL1 0.000
    20 C      -6.394865    -6.625296     0.594129 C          1 UNL1 0.000
    21 C      -6.506815    -5.028103    -1.985535 C          1 UNL1 0.000
    22 C      -7.691114    -5.779908    -2.105666 C          1 UNL1 0.000
    23 C      -8.113458    -6.289207    -3.339252 C          1 UNL1 0.000
    24 C      -7.372638    -6.037804    -4.489254 C          1 UNL1 0.000
    25 C      -6.219130    -5.265936    -4.407838 C          1 UNL1 0.000
    26 C      -5.796771    -4.761770    -3.172312 C          1 UNL1 0.000
    27 C      -1.798789     0.464229    -0.697223 C          1 UNL1 0.000
    28 C      -1.086843     0.557567    -1.898999 C          1 UNL1 0.000
    29 C       0.300465     0.558833    -1.873838 C          1 UNL1 0.000
    30 C       0.998363     0.500298    -0.671732 C          1 UNL1 0.000
    31 C       0.306164     0.433377     0.545390 C          1 UNL1 0.000
    32 C      -1.097256     0.388565     0.518595 C          1 UNL1 0.000
    33 F       0.980639     0.633604    -3.025157 F          1 UNL1 0.000
    34 H      -5.574622     5.270178    -1.261261 H          1 UNL1 0.000
    35 H      -6.477848     3.306741    -2.480301 H          1 UNL1 0.000
    36 H      -5.384301     1.116164    -2.297261 H          1 UNL1 0.000
    37 H      -2.498882     2.824979     0.426089 H          1 UNL1 0.000
    38 H      -3.559452     5.013900     0.163820 H          1 UNL1 0.000
    39 H      -5.914618     0.038720    -0.217059 H          1 UNL1 0.000
    40 H      -7.112225    -2.079779    -0.343626 H          1 UNL1 0.000
    41 H      -3.404985    -4.166965    -0.933814 H          1 UNL1 0.000
    42 H      -2.204910    -2.050534    -0.988521 H          1 UNL1 0.000
    43 H      -6.375039    -3.445742     1.800308 H          1 UNL1 0.000
    44 H      -6.844435    -4.631754     3.877357 H          1 UNL1 0.000
    45 H      -7.060491    -7.103586     3.898941 H          1 UNL1 0.000
    46 H      -6.744817    -8.382812     1.795188 H          1 UNL1 0.000
    47 H      -6.232179    -7.219475    -0.301777 H          1 UNL1 0.000
    48 H      -8.313889    -5.967796    -1.234516 H          1 UNL1 0.000
    49 H      -9.025067    -6.878052    -3.397829 H          1 UNL1 0.000
    50 H      -7.697641    -6.434005    -5.447536 H          1 UNL1 0.000
    51 H      -5.640250    -5.054717    -5.303379 H          1 UNL1 0.000
    52 H      -4.885512    -4.171974    -3.158094 H          1 UNL1 0.000
    53 H      -1.608452     0.620905    -2.848514 H          1 UNL1 0.000
    54 H       2.084327     0.535679    -0.693303 H          1 UNL1 0.000
    55 H      -1.657836     0.329053     1.450069 H          1 UNL1 0.000
    56 C       1.033840     0.476777     1.816069 C          1 UNL1 0.000
    57 C       1.773377    -0.624480     2.271349 C          1 UNL1 0.000
    58 C       2.497789    -0.552936     3.465916 C          1 UNL1 0.000
    59 C       2.499519     0.628157     4.206388 C          1 UNL1 0.000
    60 C       1.740971     1.717227     3.788510 C          1 UNL1 0.000
    61 C       1.019673     1.644957     2.595629 C          1 UNL1 0.000
    62 O       3.178977     0.762316     5.386003 O          1 UNL1 0.000
    63 C       4.572474     0.495828     5.235317 C          1 UNL1 0.000
    64 H       1.782950    -1.550160     1.699650 H          1 UNL1 0.000
    65 H       3.040633    -1.426678     3.812502 H          1 UNL1 0.000
    66 H       1.725068     2.627971     4.380428 H          1 UNL1 0.000
    67 H       0.453914     2.514652     2.267581 H          1 UNL1 0.000
    68 H       5.080254     0.858718     6.134110 H          1 UNL1 0.000
    69 H       4.992364     1.028754     4.374192 H          1 UNL1 0.000
    70 H       4.761683    -0.578871     5.153921 H          1 UNL1 0.000
@<TRIPOS>BOND
     1      1      2   2
     2      2      3   1
     3      3      4   2
     4      4      5   1
     5      5      6   2
     6      6      1   1
     7      4      7   1
     8      7      8   1
     9      8      9   2
    10      9     10   1
    11     10     11   2
    12     11     12   1
    13     12     13   2
    14     13      8   1
    15     25     26   2
    16     24     25   1
    17     23     24   2
    18     22     23   1
    19     21     22   2
    20     21     26   1
    21     19     20   2
    22     18     19   1
    23     17     18   2
    24     16     17   1
    25     15     16   2
    26     15     20   1
    27     14     15   1
    28     14     21   1
    29     11     14   1
    30     27     28   2
    31     28     29   1
    32     29     30   2
    33     30     31   1
    34     31     32   2
    35     32     27   1
    36     29     33   1
    37      7     27   1
    38      1     34   1
    39      2     35   1
    40      3     36   1
    41      5     37   1
    42      6     38   1
    43      9     39   1
    44     10     40   1
    45     12     41   1
    46     13     42   1
    47     16     43   1
    48     17     44   1
    49     18     45   1
    50     19     46   1
    51     20     47   1
    52     22     48   1
    53     23     49   1
    54     24     50   1
    55     25     51   1
    56     26     52   1
    57     28     53   1
    58     30     54   1
    59     32     55   1
    60     56     57   2
    61     57     58   1
    62     58     59   2
    63     59     60   1
    64     60     61   2
    65     61     56   1
    66     62     63   1
    67     59     62   1
    68     57     64   1
    69     58     65   1
    70     60     66   1
    71     61     67   1
    72     63     68   1
    73     63     69   1
    74     63     70   1
    75     31     56   1
