# Produced with molli package
@<TRIPOS>MOLECULE
J_1_T
69 74 0 0 0
SMALL
USER_CHARGES

@<TRIPOS>ATOM
     1 C      -5.895803     4.211246     0.754510 C          1 UNL1 0.000
     2 C      -6.533045     3.087091     1.273783 C          1 UNL1 0.000
     3 C      -5.909739     1.834604     1.217444 C          1 UNL1 0.000
     4 C      -4.647210     1.673874     0.622903 C          1 UNL1 0.000
     5 C      -4.019024     2.832320     0.119161 C          1 UNL1 0.000
     6 C      -4.635341     4.085576     0.183436 C          1 UNL1 0.000
     7 N      -3.987898     0.388266     0.552419 N          1 UNL1 0.000
     8 C      -4.694967    -0.870201     0.491418 C          1 UNL1 0.000
     9 C      -5.933841    -0.997618    -0.157441 C          1 UNL1 0.000
    10 C      -6.618654    -2.220642    -0.184907 C          1 UNL1 0.000
    11 C      -6.079065    -3.358388     0.432190 C          1 UNL1 0.000
    12 C      -4.827149    -3.251256     1.048646 C          1 UNL1 0.000
    13 C      -4.145066    -2.030467     1.070667 C          1 UNL1 0.000
    14 N      -6.796117    -4.608840     0.441053 N          1 UNL1 0.000
    15 C      -7.032871    -5.268205     1.708204 C          1 UNL1 0.000
    16 C      -7.214245    -4.519655     2.887741 C          1 UNL1 0.000
    17 C      -7.437080    -5.140825     4.120021 C          1 UNL1 0.000
    18 C      -7.490614    -6.529319     4.198472 C          1 UNL1 0.000
    19 C      -7.309186    -7.292994     3.049440 C          1 UNL1 0.000
    20 C      -7.072919    -6.670115     1.818577 C          1 UNL1 0.000
    21 C      -7.241183    -5.169003    -0.814921 C          1 UNL1 0.000
    22 C      -8.438751    -5.899755    -0.915035 C          1 UNL1 0.000
    23 C      -8.851012    -6.449117    -2.133734 C          1 UNL1 0.000
    24 C      -8.084248    -6.263905    -3.280445 C          1 UNL1 0.000
    25 C      -6.904526    -5.528443    -3.211566 C          1 UNL1 0.000
    26 C      -6.488305    -4.989039    -1.991272 C          1 UNL1 0.000
    27 C      -2.551509     0.360564     0.574032 C          1 UNL1 0.000
    28 C      -1.833084     0.024046    -0.580955 C          1 UNL1 0.000
    29 C      -0.436768     0.032156    -0.568053 C          1 UNL1 0.000
    30 C       0.269258     0.355976     0.601351 C          1 UNL1 0.000
    31 C      -0.457586     0.671502     1.759889 C          1 UNL1 0.000
    32 C      -1.853528     0.683788     1.745854 C          1 UNL1 0.000
    33 H      -6.378259     5.183937     0.801371 H          1 UNL1 0.000
    34 H      -7.513887     3.183199     1.731163 H          1 UNL1 0.000
    35 H      -6.420990     0.987009     1.666875 H          1 UNL1 0.000
    36 H      -3.038353     2.771443    -0.345711 H          1 UNL1 0.000
    37 H      -4.125551     4.958693    -0.216281 H          1 UNL1 0.000
    38 H      -6.382410    -0.145079    -0.661735 H          1 UNL1 0.000
    39 H      -7.588480    -2.276576    -0.673256 H          1 UNL1 0.000
    40 H      -4.370998    -4.123515     1.511413 H          1 UNL1 0.000
    41 H      -3.180945    -1.997249     1.571305 H          1 UNL1 0.000
    42 H      -7.196543    -3.432142     2.857117 H          1 UNL1 0.000
    43 H      -7.571222    -4.537620     5.013579 H          1 UNL1 0.000
    44 H      -7.669488    -7.013524     5.154837 H          1 UNL1 0.000
    45 H      -7.344426    -8.378253     3.107814 H          1 UNL1 0.000
    46 H      -6.903238    -7.296101     0.946786 H          1 UNL1 0.000
    47 H      -9.072731    -6.037393    -0.043063 H          1 UNL1 0.000
    48 H      -9.775917    -7.018344    -2.184597 H          1 UNL1 0.000
    49 H      -8.405839    -6.688708    -4.227588 H          1 UNL1 0.000
    50 H      -6.302936    -5.376143    -4.103440 H          1 UNL1 0.000
    51 H      -5.551403    -4.436538    -1.964814 H          1 UNL1 0.000
    52 H      -2.364646    -0.213530    -1.498950 H          1 UNL1 0.000
    53 H       0.103162    -0.199653    -1.484005 H          1 UNL1 0.000
    54 H       0.065591     0.907562     2.684457 H          1 UNL1 0.000
    55 H      -2.401712     0.929922     2.651830 H          1 UNL1 0.000
    56 C       1.734439     0.378199     0.608734 C          1 UNL1 0.000
    57 C       2.474298    -0.806191     0.484404 C          1 UNL1 0.000
    58 C       3.871834    -0.781969     0.488496 C          1 UNL1 0.000
    59 C       4.559079     0.429534     0.615393 C          1 UNL1 0.000
    60 C       3.827312     1.615914     0.734773 C          1 UNL1 0.000
    61 C       2.430647     1.589088     0.735093 C          1 UNL1 0.000
    62 C       6.057852     0.472621     0.607341 C          1 UNL1 0.000
    63 H       1.960746    -1.761061     0.390784 H          1 UNL1 0.000
    64 H       4.417026    -1.718169     0.392838 H          1 UNL1 0.000
    65 H       4.340663     2.570523     0.826203 H          1 UNL1 0.000
    66 H       1.882470     2.525043     0.823659 H          1 UNL1 0.000
    67 H       6.426391     0.979411     1.505107 H          1 UNL1 0.000
    68 H       6.413394     1.006664    -0.279585 H          1 UNL1 0.000
    69 H       6.488351    -0.533972     0.592719 H          1 UNL1 0.000
@<TRIPOS>BOND
     1      1      2   2
     2      2      3   1
     3      3      4   2
     4      4      5   1
     5      5      6   2
     6      6      1   1
     7      4      7   1
     8      7      8   1
     9      8      9   2
    10      9     10   1
    11     10     11   2
    12     11     12   1
    13     12     13   2
    14     13      8   1
    15     25     26   2
    16     24     25   1
    17     23     24   2
    18     22     23   1
    19     21     22   2
    20     21     26   1
    21     19     20   2
    22     18     19   1
    23     17     18   2
    24     16     17   1
    25     15     16   2
    26     15     20   1
    27     14     15   1
    28     14     21   1
    29     11     14   1
    30     27     28   2
    31     28     29   1
    32     29     30   2
    33     30     31   1
    34     31     32   2
    35     32     27   1
    36      7     27   1
    37      1     33   1
    38      2     34   1
    39      3     35   1
    40      5     36   1
    41      6     37   1
    42      9     38   1
    43     10     39   1
    44     12     40   1
    45     13     41   1
    46     16     42   1
    47     17     43   1
    48     18     44   1
    49     19     45   1
    50     20     46   1
    51     22     47   1
    52     23     48   1
    53     24     49   1
    54     25     50   1
    55     26     51   1
    56     28     52   1
    57     29     53   1
    58     31     54   1
    59     32     55   1
    60     56     57   2
    61     57     58   1
    62     58     59   2
    63     59     60   1
    64     60     61   2
    65     61     56   1
    66     59     62   1
    67     57     63   1
    68     58     64   1
    69     60     65   1
    70     61     66   1
    71     62     67   1
    72     62     68   1
    73     62     69   1
    74     30     56   1
