# Produced with molli package
@<TRIPOS>MOLECULE
J_1_S
71 76 0 0 0
SMALL
USER_CHARGES

@<TRIPOS>ATOM
     1 C      -5.845135     4.311903     0.292946 C          1 UNL1 0.000
     2 C      -6.528835     3.187430    -0.158545 C          1 UNL1 0.000
     3 C      -5.920476     1.925957    -0.117698 C          1 UNL1 0.000
     4 C      -4.630110     1.750211     0.411175 C          1 UNL1 0.000
     5 C      -3.954231     2.914127     0.837839 C          1 UNL1 0.000
     6 C      -4.550764     4.177774     0.778891 C          1 UNL1 0.000
     7 N      -3.990418     0.450668     0.488919 N          1 UNL1 0.000
     8 C      -4.707216    -0.805939     0.548638 C          1 UNL1 0.000
     9 C      -5.977514    -0.916787     1.139841 C          1 UNL1 0.000
    10 C      -6.680185    -2.130564     1.144706 C          1 UNL1 0.000
    11 C      -6.121822    -3.284613     0.579154 C          1 UNL1 0.000
    12 C      -4.835304    -3.202696     0.035159 C          1 UNL1 0.000
    13 C      -4.140026    -1.986827     0.028141 C          1 UNL1 0.000
    14 N      -6.849179    -4.529668     0.564326 N          1 UNL1 0.000
    15 C      -7.297443    -5.082909     1.826128 C          1 UNL1 0.000
    16 C      -6.577441    -4.838851     3.013790 C          1 UNL1 0.000
    17 C      -6.989556    -5.365937     4.241348 C          1 UNL1 0.000
    18 C      -8.127622    -6.161747     4.309079 C          1 UNL1 0.000
    19 C      -8.864142    -6.410863     3.154696 C          1 UNL1 0.000
    20 C      -8.462572    -5.862877     1.930646 C          1 UNL1 0.000
    21 C      -7.104036    -5.170327    -0.711543 C          1 UNL1 0.000
    22 C      -7.225488    -6.565825    -0.838093 C          1 UNL1 0.000
    23 C      -7.509774    -7.164535    -2.071794 C          1 UNL1 0.000
    24 C      -7.643936    -6.383020    -3.215390 C          1 UNL1 0.000
    25 C      -7.491180    -5.003807    -3.127398 C          1 UNL1 0.000
    26 C      -7.229169    -4.405897    -1.890092 C          1 UNL1 0.000
    27 C      -2.552325     0.412467     0.481487 C          1 UNL1 0.000
    28 C      -1.845213     0.602691    -0.713834 C          1 UNL1 0.000
    29 C      -0.448406     0.613060    -0.712097 C          1 UNL1 0.000
    30 C       0.267604     0.455345     0.484185 C          1 UNL1 0.000
    31 C      -0.445884     0.261996     1.677179 C          1 UNL1 0.000
    32 C      -1.843125     0.228736     1.676221 C          1 UNL1 0.000
    33 H      -6.315486     5.290813     0.257197 H          1 UNL1 0.000
    34 H      -7.537017     3.288641    -0.552054 H          1 UNL1 0.000
    35 H      -6.473474     1.084704    -0.525844 H          1 UNL1 0.000
    36 H      -2.944963     2.856415     1.237264 H          1 UNL1 0.000
    37 H      -3.999856     5.051340     1.117561 H          1 UNL1 0.000
    38 H      -6.443083    -0.058280     1.616851 H          1 UNL1 0.000
    39 H      -7.676011    -2.168680     1.580348 H          1 UNL1 0.000
    40 H      -4.363227    -4.090479    -0.379156 H          1 UNL1 0.000
    41 H      -3.147232    -1.979322    -0.414143 H          1 UNL1 0.000
    42 H      -5.669537    -4.240351     2.995076 H          1 UNL1 0.000
    43 H      -6.414382    -5.156319     5.139357 H          1 UNL1 0.000
    44 H      -8.442303    -6.582509     5.260320 H          1 UNL1 0.000
    45 H      -9.757400    -7.028196     3.203710 H          1 UNL1 0.000
    46 H      -9.084520    -6.047341     1.058578 H          1 UNL1 0.000
    47 H      -7.090660    -7.212750     0.024848 H          1 UNL1 0.000
    48 H      -7.621524    -8.243876    -2.136448 H          1 UNL1 0.000
    49 H      -7.861420    -6.847753    -4.173500 H          1 UNL1 0.000
    50 H      -7.581729    -4.386761    -4.017620 H          1 UNL1 0.000
    51 H      -7.139252    -3.322695    -1.857354 H          1 UNL1 0.000
    52 H      -2.387146     0.735590    -1.646801 H          1 UNL1 0.000
    53 H       0.081858     0.748523    -1.652516 H          1 UNL1 0.000
    54 H       0.086379     0.148797     2.619517 H          1 UNL1 0.000
    55 H      -2.382942     0.096216     2.610442 H          1 UNL1 0.000
    56 C       1.731410     0.498673     0.486600 C          1 UNL1 0.000
    57 C       2.482606    -0.681644     0.502675 C          1 UNL1 0.000
    58 C       3.880503    -0.636622     0.500620 C          1 UNL1 0.000
    59 C       4.561853     0.589806     0.484316 C          1 UNL1 0.000
    60 C       3.815169     1.772074     0.463843 C          1 UNL1 0.000
    61 C       2.413895     1.723344     0.466850 C          1 UNL1 0.000
    62 C       6.058096     0.552513     0.486161 C          1 UNL1 0.000
    63 C       6.872971     1.820402     0.498498 C          1 UNL1 0.000
    64 O       6.631270    -0.539218     0.464119 O          1 UNL1 0.000
    65 H       1.982339    -1.648346     0.511164 H          1 UNL1 0.000
    66 H       4.436059    -1.573431     0.509779 H          1 UNL1 0.000
    67 H       4.279040     2.751651     0.442579 H          1 UNL1 0.000
    68 H       1.850737     2.655627     0.455771 H          1 UNL1 0.000
    69 H       7.622550     1.742264     1.292254 H          1 UNL1 0.000
    70 H       6.294583     2.720574     0.695084 H          1 UNL1 0.000
    71 H       7.375062     1.927500    -0.467056 H          1 UNL1 0.000
@<TRIPOS>BOND
     1      1      2   2
     2      2      3   1
     3      3      4   2
     4      4      5   1
     5      5      6   2
     6      6      1   1
     7      4      7   1
     8      7      8   1
     9      8      9   2
    10      9     10   1
    11     10     11   2
    12     11     12   1
    13     12     13   2
    14     13      8   1
    15     25     26   2
    16     24     25   1
    17     23     24   2
    18     22     23   1
    19     21     22   2
    20     21     26   1
    21     19     20   2
    22     18     19   1
    23     17     18   2
    24     16     17   1
    25     15     16   2
    26     15     20   1
    27     14     15   1
    28     14     21   1
    29     11     14   1
    30     27     28   2
    31     28     29   1
    32     29     30   2
    33     30     31   1
    34     31     32   2
    35     32     27   1
    36      7     27   1
    37      1     33   1
    38      2     34   1
    39      3     35   1
    40      5     36   1
    41      6     37   1
    42      9     38   1
    43     10     39   1
    44     12     40   1
    45     13     41   1
    46     16     42   1
    47     17     43   1
    48     18     44   1
    49     19     45   1
    50     20     46   1
    51     22     47   1
    52     23     48   1
    53     24     49   1
    54     25     50   1
    55     26     51   1
    56     28     52   1
    57     29     53   1
    58     31     54   1
    59     32     55   1
    60     56     57   2
    61     57     58   1
    62     58     59   2
    63     59     60   1
    64     60     61   2
    65     61     56   1
    66     59     62   1
    67     62     63   1
    68     62     64   2
    69     57     65   1
    70     58     66   1
    71     60     67   1
    72     61     68   1
    73     63     69   1
    74     63     70   1
    75     63     71   1
    76     30     56   1
