# Produced with molli package
@<TRIPOS>MOLECULE
J_1_M
67 72 0 0 0
SMALL
USER_CHARGES

@<TRIPOS>ATOM
     1 C      -5.893735     4.297434     0.291922 C          1 UNL1 0.000
     2 C      -6.572277     3.168906    -0.158107 C          1 UNL1 0.000
     3 C      -5.958190     1.910132    -0.115980 C          1 UNL1 0.000
     4 C      -4.665616     1.742840     0.409484 C          1 UNL1 0.000
     5 C      -3.995865     2.910060     0.836955 C          1 UNL1 0.000
     6 C      -4.598936     4.170360     0.778583 C          1 UNL1 0.000
     7 N      -4.016557     0.448882     0.482789 N          1 UNL1 0.000
     8 C      -4.720044    -0.813743     0.557650 C          1 UNL1 0.000
     9 C      -5.981430    -0.936062     1.164338 C          1 UNL1 0.000
    10 C      -6.665557    -2.160108     1.187583 C          1 UNL1 0.000
    11 C      -6.098110    -3.308902     0.620075 C          1 UNL1 0.000
    12 C      -4.818737    -3.214995     0.062324 C          1 UNL1 0.000
    13 C      -4.142109    -1.990451     0.038228 C          1 UNL1 0.000
    14 N      -6.816454    -4.558470     0.600999 N          1 UNL1 0.000
    15 C      -7.241360    -5.127563     1.862724 C          1 UNL1 0.000
    16 C      -6.488943    -4.913407     3.035940 C          1 UNL1 0.000
    17 C      -6.880021    -5.453638     4.264712 C          1 UNL1 0.000
    18 C      -8.030333    -6.230387     4.347748 C          1 UNL1 0.000
    19 C      -8.798215    -6.449374     3.207614 C          1 UNL1 0.000
    20 C      -8.415789    -5.890629     1.982373 C          1 UNL1 0.000
    21 C      -7.092085    -5.179161    -0.680746 C          1 UNL1 0.000
    22 C      -7.239059    -6.570129    -0.825069 C          1 UNL1 0.000
    23 C      -7.535961    -7.147237    -2.066384 C          1 UNL1 0.000
    24 C      -7.657298    -6.349092    -3.200045 C          1 UNL1 0.000
    25 C      -7.480937    -4.974363    -3.094657 C          1 UNL1 0.000
    26 C      -7.207893    -4.397944    -1.849961 C          1 UNL1 0.000
    27 C      -2.578945     0.418905     0.467542 C          1 UNL1 0.000
    28 C      -1.878256     0.630200    -0.728007 C          1 UNL1 0.000
    29 C      -0.481872     0.629979    -0.734042 C          1 UNL1 0.000
    30 C       0.238137     0.440522     0.455124 C          1 UNL1 0.000
    31 C      -0.469250     0.228836     1.648428 C          1 UNL1 0.000
    32 C      -1.865470     0.206210     1.654645 C          1 UNL1 0.000
    33 H      -6.368613     5.274165     0.255044 H          1 UNL1 0.000
    34 H      -7.580909     3.265460    -0.551674 H          1 UNL1 0.000
    35 H      -6.507047     1.064680    -0.521107 H          1 UNL1 0.000
    36 H      -2.986337     2.856724     1.236597 H          1 UNL1 0.000
    37 H      -4.052684     5.046724     1.117661 H          1 UNL1 0.000
    38 H      -6.453620    -0.079475     1.638156 H          1 UNL1 0.000
    39 H      -7.656276    -2.209697     1.633484 H          1 UNL1 0.000
    40 H      -4.341504    -4.098511    -0.355015 H          1 UNL1 0.000
    41 H      -3.155885    -1.971596    -0.418222 H          1 UNL1 0.000
    42 H      -5.572481    -4.328669     3.003475 H          1 UNL1 0.000
    43 H      -6.280092    -5.268449     5.151866 H          1 UNL1 0.000
    44 H      -8.330456    -6.659387     5.300071 H          1 UNL1 0.000
    45 H      -9.701487    -7.050804     3.269200 H          1 UNL1 0.000
    46 H      -9.060414    -6.050684     1.122047 H          1 UNL1 0.000
    47 H      -7.113417    -7.231381     0.028212 H          1 UNL1 0.000
    48 H      -7.666806    -8.223473    -2.145156 H          1 UNL1 0.000
    49 H      -7.883241    -6.797363    -4.163960 H          1 UNL1 0.000
    50 H      -7.560715    -4.343719    -3.976316 H          1 UNL1 0.000
    51 H      -7.099187    -3.316852    -1.805242 H          1 UNL1 0.000
    52 H      -2.424912     0.784388    -1.655003 H          1 UNL1 0.000
    53 H       0.044299     0.782364    -1.674152 H          1 UNL1 0.000
    54 H       0.067003     0.092610     2.585313 H          1 UNL1 0.000
    55 H      -2.401835     0.056312     2.588218 H          1 UNL1 0.000
    56 C       1.701449     0.473980     0.453732 C          1 UNL1 0.000
    57 C       2.444809    -0.715017     0.432917 C          1 UNL1 0.000
    58 C       3.842563    -0.682988     0.434916 C          1 UNL1 0.000
    59 C       4.515732     0.542027     0.460627 C          1 UNL1 0.000
    60 C       3.784944     1.733418     0.481864 C          1 UNL1 0.000
    61 C       2.387401     1.697761     0.476909 C          1 UNL1 0.000
    62 C       5.948469     0.576263     0.466171 C          1 UNL1 0.000
    63 N       7.109241     0.604266     0.471207 N          1 UNL1 0.000
    64 H       1.932947    -1.675826     0.411742 H          1 UNL1 0.000
    65 H       4.397150    -1.619273     0.416527 H          1 UNL1 0.000
    66 H       4.293898     2.695246     0.503645 H          1 UNL1 0.000
    67 H       1.830171     2.633141     0.496548 H          1 UNL1 0.000
@<TRIPOS>BOND
     1      1      2   2
     2      2      3   1
     3      3      4   2
     4      4      5   1
     5      5      6   2
     6      6      1   1
     7      4      7   1
     8      7      8   1
     9      8      9   2
    10      9     10   1
    11     10     11   2
    12     11     12   1
    13     12     13   2
    14     13      8   1
    15     25     26   2
    16     24     25   1
    17     23     24   2
    18     22     23   1
    19     21     22   2
    20     21     26   1
    21     19     20   2
    22     18     19   1
    23     17     18   2
    24     16     17   1
    25     15     16   2
    26     15     20   1
    27     14     15   1
    28     14     21   1
    29     11     14   1
    30     27     28   2
    31     28     29   1
    32     29     30   2
    33     30     31   1
    34     31     32   2
    35     32     27   1
    36      7     27   1
    37      1     33   1
    38      2     34   1
    39      3     35   1
    40      5     36   1
    41      6     37   1
    42      9     38   1
    43     10     39   1
    44     12     40   1
    45     13     41   1
    46     16     42   1
    47     17     43   1
    48     18     44   1
    49     19     45   1
    50     20     46   1
    51     22     47   1
    52     23     48   1
    53     24     49   1
    54     25     50   1
    55     26     51   1
    56     28     52   1
    57     29     53   1
    58     31     54   1
    59     32     55   1
    60     56     57   2
    61     57     58   1
    62     58     59   2
    63     59     60   1
    64     60     61   2
    65     61     56   1
    66     62     63   3
    67     59     62   1
    68     57     64   1
    69     58     65   1
    70     60     66   1
    71     61     67   1
    72     30     56   1
