# Produced with molli package
@<TRIPOS>MOLECULE
J_1_P
70 75 0 0 0
SMALL
USER_CHARGES

@<TRIPOS>ATOM
     1 C      -5.815774     4.163971     0.888602 C          1 UNL1 0.000
     2 C      -6.467069     3.020999     1.341330 C          1 UNL1 0.000
     3 C      -5.844151     1.770517     1.247173 C          1 UNL1 0.000
     4 C      -4.568261     1.627988     0.672632 C          1 UNL1 0.000
     5 C      -3.924012     2.807099     0.244897 C          1 UNL1 0.000
     6 C      -4.538804     4.059047     0.349522 C          1 UNL1 0.000
     7 N      -3.920095     0.338860     0.548392 N          1 UNL1 0.000
     8 C      -4.639874    -0.911439     0.471961 C          1 UNL1 0.000
     9 C      -5.883275    -1.011502    -0.174986 C          1 UNL1 0.000
    10 C      -6.595263    -2.217634    -0.201060 C          1 UNL1 0.000
    11 C      -6.077566    -3.368339     0.409443 C          1 UNL1 0.000
    12 C      -4.816319    -3.292928     1.012855 C          1 UNL1 0.000
    13 C      -4.107406    -2.086937     1.034576 C          1 UNL1 0.000
    14 N      -6.827603    -4.599091     0.426455 N          1 UNL1 0.000
    15 C      -7.098879    -5.232316     1.700889 C          1 UNL1 0.000
    16 C      -7.239336    -4.461817     2.873555 C          1 UNL1 0.000
    17 C      -7.501149    -5.056479     4.111616 C          1 UNL1 0.000
    18 C      -7.637046    -6.437094     4.204865 C          1 UNL1 0.000
    19 C      -7.495263    -7.222994     3.064221 C          1 UNL1 0.000
    20 C      -7.217028    -6.627312     1.828241 C          1 UNL1 0.000
    21 C      -7.301057    -5.142537    -0.827929 C          1 UNL1 0.000
    22 C      -8.515715    -5.843191    -0.923534 C          1 UNL1 0.000
    23 C      -8.956466    -6.367027    -2.143944 C          1 UNL1 0.000
    24 C      -8.201337    -6.181547    -3.299047 C          1 UNL1 0.000
    25 C      -7.005149    -5.474957    -3.235530 C          1 UNL1 0.000
    26 C      -6.558877    -4.965098    -2.012984 C          1 UNL1 0.000
    27 C      -2.484007     0.296752     0.528428 C          1 UNL1 0.000
    28 C      -1.798115     0.131144    -0.682705 C          1 UNL1 0.000
    29 C      -0.400673     0.145943    -0.708860 C          1 UNL1 0.000
    30 C       0.334383     0.298659     0.475820 C          1 UNL1 0.000
    31 C      -0.358444     0.435131     1.688523 C          1 UNL1 0.000
    32 C      -1.754430     0.448135     1.715012 C          1 UNL1 0.000
    33 H      -6.297987     5.134903     0.963292 H          1 UNL1 0.000
    34 H      -7.460373     3.098729     1.775884 H          1 UNL1 0.000
    35 H      -6.370315     0.908841     1.648949 H          1 UNL1 0.000
    36 H      -2.929805     2.768876    -0.192916 H          1 UNL1 0.000
    37 H      -4.016144     4.947673     0.005455 H          1 UNL1 0.000
    38 H      -6.316020    -0.147561    -0.673260 H          1 UNL1 0.000
    39 H      -7.570385    -2.249644    -0.681489 H          1 UNL1 0.000
    40 H      -4.377302    -4.177513     1.468223 H          1 UNL1 0.000
    41 H      -3.138654    -2.078009     1.527059 H          1 UNL1 0.000
    42 H      -7.159820    -3.378071     2.833505 H          1 UNL1 0.000
    43 H      -7.602350    -4.436038     4.998442 H          1 UNL1 0.000
    44 H      -7.848879    -6.900033     5.165086 H          1 UNL1 0.000
    45 H      -7.595215    -8.302934     3.134101 H          1 UNL1 0.000
    46 H      -7.079672    -7.273044     0.964460 H          1 UNL1 0.000
    47 H      -9.145368    -5.976353    -0.047309 H          1 UNL1 0.000
    48 H      -9.894322    -6.914095    -2.190439 H          1 UNL1 0.000
    49 H      -8.546662    -6.583493    -4.247856 H          1 UNL1 0.000
    50 H      -6.413050    -5.320118    -4.133787 H          1 UNL1 0.000
    51 H      -5.610022    -4.433998    -1.992920 H          1 UNL1 0.000
    52 H      -2.356353     0.025851    -1.609445 H          1 UNL1 0.000
    53 H       0.114263     0.049728    -1.662347 H          1 UNL1 0.000
    54 H       0.191753     0.544809     2.620965 H          1 UNL1 0.000
    55 H      -2.277097     0.567009     2.660615 H          1 UNL1 0.000
    56 C       1.797706     0.344835     0.453626 C          1 UNL1 0.000
    57 C       2.559174    -0.824621     0.605193 C          1 UNL1 0.000
    58 C       3.955407    -0.767403     0.626151 C          1 UNL1 0.000
    59 C       4.595112     0.459941     0.479384 C          1 UNL1 0.000
    60 C       3.859287     1.633097     0.339038 C          1 UNL1 0.000
    61 C       2.464855     1.573091     0.317471 C          1 UNL1 0.000
    62 O       5.958477     0.523869     0.565179 O          1 UNL1 0.000
    63 C       6.536667     0.482603    -0.738940 C          1 UNL1 0.000
    64 H       2.063322    -1.785577     0.725640 H          1 UNL1 0.000
    65 H       4.536809    -1.673237     0.768861 H          1 UNL1 0.000
    66 H       4.365257     2.590483     0.260465 H          1 UNL1 0.000
    67 H       1.894323     2.493628     0.212376 H          1 UNL1 0.000
    68 H       7.602255     0.710280    -0.638919 H          1 UNL1 0.000
    69 H       6.094771     1.229109    -1.408609 H          1 UNL1 0.000
    70 H       6.440280    -0.519796    -1.169213 H          1 UNL1 0.000
@<TRIPOS>BOND
     1      1      2   2
     2      2      3   1
     3      3      4   2
     4      4      5   1
     5      5      6   2
     6      6      1   1
     7      4      7   1
     8      7      8   1
     9      8      9   2
    10      9     10   1
    11     10     11   2
    12     11     12   1
    13     12     13   2
    14     13      8   1
    15     25     26   2
    16     24     25   1
    17     23     24   2
    18     22     23   1
    19     21     22   2
    20     21     26   1
    21     19     20   2
    22     18     19   1
    23     17     18   2
    24     16     17   1
    25     15     16   2
    26     15     20   1
    27     14     15   1
    28     14     21   1
    29     11     14   1
    30     27     28   2
    31     28     29   1
    32     29     30   2
    33     30     31   1
    34     31     32   2
    35     32     27   1
    36      7     27   1
    37      1     33   1
    38      2     34   1
    39      3     35   1
    40      5     36   1
    41      6     37   1
    42      9     38   1
    43     10     39   1
    44     12     40   1
    45     13     41   1
    46     16     42   1
    47     17     43   1
    48     18     44   1
    49     19     45   1
    50     20     46   1
    51     22     47   1
    52     23     48   1
    53     24     49   1
    54     25     50   1
    55     26     51   1
    56     28     52   1
    57     29     53   1
    58     31     54   1
    59     32     55   1
    60     56     57   2
    61     57     58   1
    62     58     59   2
    63     59     60   1
    64     60     61   2
    65     61     56   1
    66     62     63   1
    67     59     62   1
    68     57     64   1
    69     58     65   1
    70     60     66   1
    71     61     67   1
    72     63     68   1
    73     63     69   1
    74     63     70   1
    75     30     56   1
