# Produced with molli package
@<TRIPOS>MOLECULE
J_1_K
68 73 0 0 0
SMALL
USER_CHARGES

@<TRIPOS>ATOM
     1 C      -5.789332     4.215365     0.888404 C          1 UNL1 0.000
     2 C      -6.394015     3.087237     1.433743 C          1 UNL1 0.000
     3 C      -5.771855     1.836263     1.336788 C          1 UNL1 0.000
     4 C      -4.556195     1.673366     0.651244 C          1 UNL1 0.000
     5 C      -3.953166     2.840613     0.135583 C          1 UNL1 0.000
     6 C      -4.559116     4.095481     0.253471 C          1 UNL1 0.000
     7 N      -3.913468     0.383055     0.494062 N          1 UNL1 0.000
     8 C      -4.621679    -0.880449     0.417839 C          1 UNL1 0.000
     9 C      -5.980762    -0.964123     0.069704 C          1 UNL1 0.000
    10 C      -6.673624    -2.182139     0.099252 C          1 UNL1 0.000
    11 C      -6.004624    -3.378109     0.382999 C          1 UNL1 0.000
    12 C      -4.630981    -3.329245     0.631897 C          1 UNL1 0.000
    13 C      -3.960295    -2.100295     0.675464 C          1 UNL1 0.000
    14 N      -6.714367    -4.629185     0.399844 N          1 UNL1 0.000
    15 C      -7.197811    -5.112874     1.680786 C          1 UNL1 0.000
    16 C      -6.459519    -4.923051     2.866051 C          1 UNL1 0.000
    17 C      -6.909239    -5.407465     4.100032 C          1 UNL1 0.000
    18 C      -8.118327    -6.087026     4.183000 C          1 UNL1 0.000
    19 C      -8.888847    -6.256966     3.037684 C          1 UNL1 0.000
    20 C      -8.441426    -5.759708     1.806901 C          1 UNL1 0.000
    21 C      -6.991396    -5.297240    -0.860511 C          1 UNL1 0.000
    22 C      -7.318415    -6.665303    -0.922047 C          1 UNL1 0.000
    23 C      -7.632608    -7.295276    -2.133421 C          1 UNL1 0.000
    24 C      -7.587225    -6.581933    -3.325513 C          1 UNL1 0.000
    25 C      -7.207232    -5.246362    -3.307867 C          1 UNL1 0.000
    26 C      -6.906137    -4.617988    -2.093685 C          1 UNL1 0.000
    27 C      -2.474405     0.366573     0.469665 C          1 UNL1 0.000
    28 C      -1.783776     0.170243    -0.734133 C          1 UNL1 0.000
    29 C      -0.386497     0.193774    -0.755378 C          1 UNL1 0.000
    30 C       0.344369     0.391510     0.426086 C          1 UNL1 0.000
    31 C      -0.352400     0.565814     1.631103 C          1 UNL1 0.000
    32 C      -1.748633     0.563928     1.652845 C          1 UNL1 0.000
    33 H      -6.270228     5.186652     0.967053 H          1 UNL1 0.000
    34 H      -7.350144     3.177223     1.942937 H          1 UNL1 0.000
    35 H      -6.253290     0.991610     1.821889 H          1 UNL1 0.000
    36 H      -2.999859     2.788274    -0.384146 H          1 UNL1 0.000
    37 H      -4.068291     4.973490    -0.158196 H          1 UNL1 0.000
    38 H      -6.534581    -0.081317    -0.236329 H          1 UNL1 0.000
    39 H      -7.736699    -2.200444    -0.128986 H          1 UNL1 0.000
    40 H      -4.082114    -4.247499     0.825406 H          1 UNL1 0.000
    41 H      -2.903883    -2.120120     0.930778 H          1 UNL1 0.000
    42 H      -5.504166    -4.409283     2.855196 H          1 UNL1 0.000
    43 H      -6.307215    -5.253648     4.992070 H          1 UNL1 0.000
    44 H      -8.463213    -6.472391     5.138751 H          1 UNL1 0.000
    45 H      -9.843897    -6.772217     3.098343 H          1 UNL1 0.000
    46 H      -9.091866    -5.875033     0.943629 H          1 UNL1 0.000
    47 H      -7.322969    -7.276127    -0.023337 H          1 UNL1 0.000
    48 H      -7.906969    -8.346931    -2.140291 H          1 UNL1 0.000
    49 H      -7.831744    -7.067916    -4.265951 H          1 UNL1 0.000
    50 H      -7.144236    -4.683715    -4.235782 H          1 UNL1 0.000
    51 H      -6.611568    -3.574350    -2.142972 H          1 UNL1 0.000
    52 H      -2.338175     0.025787    -1.658018 H          1 UNL1 0.000
    53 H       0.131311     0.064344    -1.703594 H          1 UNL1 0.000
    54 H       0.191604     0.711188     2.562200 H          1 UNL1 0.000
    55 H      -2.275817     0.705658     2.593091 H          1 UNL1 0.000
    56 C       1.807844     0.429009     0.404273 C          1 UNL1 0.000
    57 C       2.556441    -0.748098     0.573022 C          1 UNL1 0.000
    58 C       3.953141    -0.712908     0.570643 C          1 UNL1 0.000
    59 C       4.603158     0.511556     0.388905 C          1 UNL1 0.000
    60 C       3.880916     1.695927     0.211995 C          1 UNL1 0.000
    61 C       2.484876     1.647855     0.224977 C          1 UNL1 0.000
    62 N       6.061912     0.557097     0.385954 N          1 UNL1 0.000
    63 O       6.606160     1.393616    -0.344730 O          1 UNL1 0.000
    64 O       6.658154    -0.247470     1.118779 O          1 UNL1 0.000
    65 H       2.046746    -1.700525     0.711673 H          1 UNL1 0.000
    66 H       4.514869    -1.634690     0.706136 H          1 UNL1 0.000
    67 H       4.385472     2.649471     0.073640 H          1 UNL1 0.000
    68 H       1.918532     2.569480     0.097041 H          1 UNL1 0.000
@<TRIPOS>BOND
     1      1      2   2
     2      2      3   1
     3      3      4   2
     4      4      5   1
     5      5      6   2
     6      6      1   1
     7      4      7   1
     8      7      8   1
     9      8      9   2
    10      9     10   1
    11     10     11   2
    12     11     12   1
    13     12     13   2
    14     13      8   1
    15     25     26   2
    16     24     25   1
    17     23     24   2
    18     22     23   1
    19     21     22   2
    20     21     26   1
    21     19     20   2
    22     18     19   1
    23     17     18   2
    24     16     17   1
    25     15     16   2
    26     15     20   1
    27     14     15   1
    28     14     21   1
    29     11     14   1
    30     27     28   2
    31     28     29   1
    32     29     30   2
    33     30     31   1
    34     31     32   2
    35     32     27   1
    36      7     27   1
    37      1     33   1
    38      2     34   1
    39      3     35   1
    40      5     36   1
    41      6     37   1
    42      9     38   1
    43     10     39   1
    44     12     40   1
    45     13     41   1
    46     16     42   1
    47     17     43   1
    48     18     44   1
    49     19     45   1
    50     20     46   1
    51     22     47   1
    52     23     48   1
    53     24     49   1
    54     25     50   1
    55     26     51   1
    56     28     52   1
    57     29     53   1
    58     31     54   1
    59     32     55   1
    60     56     57   2
    61     57     58   1
    62     58     59   2
    63     59     60   1
    64     60     61   2
    65     61     56   1
    66     62     63   2
    67     62     64   1
    68     59     62   1
    69     57     65   1
    70     58     66   1
    71     60     67   1
    72     61     68   1
    73     30     56   1
