# Produced with molli package
@<TRIPOS>MOLECULE
J_1_O
65 70 0 0 0
SMALL
USER_CHARGES

@<TRIPOS>ATOM
     1 C      -5.928902     4.213958     0.848925 C          1 UNL1 0.000
     2 C      -6.528774     3.066913     1.361362 C          1 UNL1 0.000
     3 C      -5.892553     1.825938     1.242916 C          1 UNL1 0.000
     4 C      -4.651708     1.702401     0.594446 C          1 UNL1 0.000
     5 C      -4.062788     2.881162     0.093358 C          1 UNL1 0.000
     6 C      -4.692480     4.122767     0.219052 C          1 UNL1 0.000
     7 N      -3.976369     0.429916     0.466725 N          1 UNL1 0.000
     8 C      -4.677185    -0.831021     0.408486 C          1 UNL1 0.000
     9 C      -5.916383    -0.958127    -0.240840 C          1 UNL1 0.000
    10 C      -6.606323    -2.177613    -0.255770 C          1 UNL1 0.000
    11 C      -6.074399    -3.310978     0.376052 C          1 UNL1 0.000
    12 C      -4.821875    -3.202507     0.993643 C          1 UNL1 0.000
    13 C      -4.131981    -1.985569     1.000437 C          1 UNL1 0.000
    14 N      -6.800507    -4.555675     0.403293 N          1 UNL1 0.000
    15 C      -7.031373    -5.201969     1.677123 C          1 UNL1 0.000
    16 C      -7.240776    -4.440851     2.843851 C          1 UNL1 0.000
    17 C      -7.470963    -5.052872     4.079303 C          1 UNL1 0.000
    18 C      -7.498092    -6.440775     4.173926 C          1 UNL1 0.000
    19 C      -7.284031    -7.215769     3.036957 C          1 UNL1 0.000
    20 C      -7.045277    -6.602285     1.802379 C          1 UNL1 0.000
    21 C      -7.294730    -5.112425    -0.835829 C          1 UNL1 0.000
    22 C      -8.503810    -5.828114    -0.892781 C          1 UNL1 0.000
    23 C      -8.969962    -6.367631    -2.096099 C          1 UNL1 0.000
    24 C      -8.243485    -6.188972    -3.270228 C          1 UNL1 0.000
    25 C      -7.050865    -5.472635    -3.242833 C          1 UNL1 0.000
    26 C      -6.581019    -4.942371    -2.037870 C          1 UNL1 0.000
    27 C      -2.538761     0.416931     0.475436 C          1 UNL1 0.000
    28 C      -1.824820     0.017362    -0.662127 C          1 UNL1 0.000
    29 C      -0.426886     0.039932    -0.660699 C          1 UNL1 0.000
    30 C       0.285032     0.450720     0.477363 C          1 UNL1 0.000
    31 C      -0.437205     0.823778     1.621886 C          1 UNL1 0.000
    32 C      -1.833848     0.815454     1.620029 C          1 UNL1 0.000
    33 H      -6.421492     5.177862     0.944825 H          1 UNL1 0.000
    34 H      -7.490939     3.135273     1.862254 H          1 UNL1 0.000
    35 H      -6.372908     0.957664     1.686287 H          1 UNL1 0.000
    36 H      -3.103232     2.843296    -0.416883 H          1 UNL1 0.000
    37 H      -4.214052     5.014081    -0.178185 H          1 UNL1 0.000
    38 H      -6.360299    -0.105894    -0.749505 H          1 UNL1 0.000
    39 H      -7.576602    -2.232826    -0.743732 H          1 UNL1 0.000
    40 H      -4.371657    -4.070597     1.469551 H          1 UNL1 0.000
    41 H      -3.168170    -1.948432     1.502662 H          1 UNL1 0.000
    42 H      -7.243837    -3.354352     2.797412 H          1 UNL1 0.000
    43 H      -7.632477    -4.441825     4.963480 H          1 UNL1 0.000
    44 H      -7.682183    -6.917470     5.133132 H          1 UNL1 0.000
    45 H      -7.297542    -8.300199     3.108543 H          1 UNL1 0.000
    46 H      -6.854647    -7.232589     0.937217 H          1 UNL1 0.000
    47 H      -9.107204    -5.960027     0.001969 H          1 UNL1 0.000
    48 H      -9.904235    -6.922599    -2.113696 H          1 UNL1 0.000
    49 H      -8.607327    -6.605136    -4.205874 H          1 UNL1 0.000
    50 H      -6.480004    -5.327066    -4.156133 H          1 UNL1 0.000
    51 H      -5.635667    -4.404528    -2.043812 H          1 UNL1 0.000
    52 H      -2.358422    -0.287175    -1.558783 H          1 UNL1 0.000
    53 H       0.112910    -0.258006    -1.557490 H          1 UNL1 0.000
    54 H       0.089356     1.112691     2.529058 H          1 UNL1 0.000
    55 H      -2.376384     1.101132     2.517701 H          1 UNL1 0.000
    56 C       1.748676     0.500384     0.467465 C          1 UNL1 0.000
    57 N       2.381897    -0.696127     0.422797 N          1 UNL1 0.000
    58 C       3.733040    -0.681839     0.436446 C          1 UNL1 0.000
    59 C       4.492434     0.475526     0.476451 C          1 UNL1 0.000
    60 C       3.829251     1.695255     0.506638 C          1 UNL1 0.000
    61 C       2.437004     1.711923     0.506712 C          1 UNL1 0.000
    62 H       4.204216    -1.660076     0.415406 H          1 UNL1 0.000
    63 H       5.575631     0.426212     0.482976 H          1 UNL1 0.000
    64 H       4.387973     2.626244     0.531105 H          1 UNL1 0.000
    65 H       1.898775     2.653810     0.528192 H          1 UNL1 0.000
@<TRIPOS>BOND
     1      1      2   2
     2      2      3   1
     3      3      4   2
     4      4      5   1
     5      5      6   2
     6      6      1   1
     7      4      7   1
     8      7      8   1
     9      8      9   2
    10      9     10   1
    11     10     11   2
    12     11     12   1
    13     12     13   2
    14     13      8   1
    15     25     26   2
    16     24     25   1
    17     23     24   2
    18     22     23   1
    19     21     22   2
    20     21     26   1
    21     19     20   2
    22     18     19   1
    23     17     18   2
    24     16     17   1
    25     15     16   2
    26     15     20   1
    27     14     15   1
    28     14     21   1
    29     11     14   1
    30     27     28   2
    31     28     29   1
    32     29     30   2
    33     30     31   1
    34     31     32   2
    35     32     27   1
    36      7     27   1
    37      1     33   1
    38      2     34   1
    39      3     35   1
    40      5     36   1
    41      6     37   1
    42      9     38   1
    43     10     39   1
    44     12     40   1
    45     13     41   1
    46     16     42   1
    47     17     43   1
    48     18     44   1
    49     19     45   1
    50     20     46   1
    51     22     47   1
    52     23     48   1
    53     24     49   1
    54     25     50   1
    55     26     51   1
    56     28     52   1
    57     29     53   1
    58     31     54   1
    59     32     55   1
    60     56     57   2
    61     57     58   1
    62     58     59   2
    63     59     60   1
    64     60     61   2
    65     61     56   1
    66     58     62   1
    67     59     63   1
    68     60     64   1
    69     61     65   1
    70     30     56   1
