# Produced with molli package
@<TRIPOS>MOLECULE
J_1_L
70 76 0 0 0
SMALL
USER_CHARGES

@<TRIPOS>ATOM
     1 C      -5.895525     4.262811     0.286869 C          1 UNL1 0.000
     2 C      -6.559592     3.136478    -0.189968 C          1 UNL1 0.000
     3 C      -5.941020     1.880498    -0.147494 C          1 UNL1 0.000
     4 C      -4.657058     1.715475     0.399804 C          1 UNL1 0.000
     5 C      -4.002045     2.878892     0.857132 C          1 UNL1 0.000
     6 C      -4.611079     4.136256     0.801524 C          1 UNL1 0.000
     7 N      -4.005004     0.423754     0.466801 N          1 UNL1 0.000
     8 C      -4.713179    -0.835161     0.532459 C          1 UNL1 0.000
     9 C      -5.959843    -0.958871     1.168842 C          1 UNL1 0.000
    10 C      -6.647523    -2.180508     1.195572 C          1 UNL1 0.000
    11 C      -6.100746    -3.324254     0.597599 C          1 UNL1 0.000
    12 C      -4.840721    -3.223913    -0.003655 C          1 UNL1 0.000
    13 C      -4.157603    -2.002592    -0.027435 C          1 UNL1 0.000
    14 N      -6.815068    -4.576545     0.599654 N          1 UNL1 0.000
    15 C      -7.225783    -5.142137     1.867537 C          1 UNL1 0.000
    16 C      -6.474513    -4.908652     3.037180 C          1 UNL1 0.000
    17 C      -6.853782    -5.449597     4.269326 C          1 UNL1 0.000
    18 C      -7.990336    -6.245975     4.358963 C          1 UNL1 0.000
    19 C      -8.756187    -6.485529     3.221645 C          1 UNL1 0.000
    20 C      -8.385354    -5.927524     1.992802 C          1 UNL1 0.000
    21 C      -7.090214    -5.220107    -0.669253 C          1 UNL1 0.000
    22 C      -7.158064    -6.618816    -0.797540 C          1 UNL1 0.000
    23 C      -7.450950    -7.223146    -2.025991 C          1 UNL1 0.000
    24 C      -7.653903    -6.442142    -3.160198 C          1 UNL1 0.000
    25 C      -7.562224    -5.057514    -3.068417 C          1 UNL1 0.000
    26 C      -7.287268    -4.454807    -1.836838 C          1 UNL1 0.000
    27 C      -2.567369     0.393833     0.464647 C          1 UNL1 0.000
    28 C      -1.854226     0.659166    -0.712689 C          1 UNL1 0.000
    29 C      -0.457591     0.672982    -0.701992 C          1 UNL1 0.000
    30 C       0.251468     0.441896     0.486404 C          1 UNL1 0.000
    31 C      -0.468593     0.172621     1.660606 C          1 UNL1 0.000
    32 C      -1.864904     0.137233     1.649695 C          1 UNL1 0.000
    33 H      -6.373793     5.237837     0.249919 H          1 UNL1 0.000
    34 H      -7.559713     3.232675    -0.604505 H          1 UNL1 0.000
    35 H      -6.476649     1.034382    -0.569017 H          1 UNL1 0.000
    36 H      -3.001254     2.823166     1.278433 H          1 UNL1 0.000
    37 H      -4.077318     5.010970     1.163930 H          1 UNL1 0.000
    38 H      -6.413436    -0.104845     1.665344 H          1 UNL1 0.000
    39 H      -7.623590    -2.232445     1.672362 H          1 UNL1 0.000
    40 H      -4.379508    -4.101844    -0.449840 H          1 UNL1 0.000
    41 H      -3.185542    -1.976332    -0.513409 H          1 UNL1 0.000
    42 H      -5.567825    -4.309200     2.999149 H          1 UNL1 0.000
    43 H      -6.254932    -5.249967     5.154059 H          1 UNL1 0.000
    44 H      -8.280804    -6.675175     5.314151 H          1 UNL1 0.000
    45 H      -9.648122    -7.103107     3.287888 H          1 UNL1 0.000
    46 H      -9.025956    -6.106646     1.133069 H          1 UNL1 0.000
    47 H      -6.971100    -7.260921     0.059385 H          1 UNL1 0.000
    48 H      -7.515044    -8.306049    -2.094556 H          1 UNL1 0.000
    49 H      -7.878144    -6.911351    -4.114533 H          1 UNL1 0.000
    50 H      -7.709276    -4.440627    -3.951140 H          1 UNL1 0.000
    51 H      -7.243730    -3.368883    -1.797466 H          1 UNL1 0.000
    52 H      -2.390521     0.848345    -1.639074 H          1 UNL1 0.000
    53 H       0.079329     0.869913    -1.627693 H          1 UNL1 0.000
    54 H       0.059750     0.006534     2.597258 H          1 UNL1 0.000
    55 H      -2.408952    -0.052290     2.571363 H          1 UNL1 0.000
    56 C       1.715898     0.494729     0.505761 C          1 UNL1 0.000
    57 C       2.470764    -0.685388     0.552860 C          1 UNL1 0.000
    58 C       3.870273    -0.665308     0.579179 C          1 UNL1 0.000
    59 C       4.498824     0.583240     0.562747 C          1 UNL1 0.000
    60 C       3.788358     1.782578     0.517042 C          1 UNL1 0.000
    61 C       2.380744     1.735276     0.484605 C          1 UNL1 0.000
    62 N       5.835964     0.907561     0.586196 N          1 UNL1 0.000
    63 C       5.996222     2.267007     0.562097 C          1 UNL1 0.000
    64 C       4.743142     2.836464     0.518003 C          1 UNL1 0.000
    65 H       1.961632    -1.647995     0.565030 H          1 UNL1 0.000
    66 H       4.438199    -1.589276     0.612933 H          1 UNL1 0.000
    67 H       1.812066     2.661091     0.453334 H          1 UNL1 0.000
    68 H       6.588414     0.231709     0.619878 H          1 UNL1 0.000
    69 H       6.981830     2.710951     0.578542 H          1 UNL1 0.000
    70 H       4.532928     3.897256     0.491217 H          1 UNL1 0.000
@<TRIPOS>BOND
     1      1      2   2
     2      2      3   1
     3      3      4   2
     4      4      5   1
     5      5      6   2
     6      6      1   1
     7      4      7   1
     8      7      8   1
     9      8      9   2
    10      9     10   1
    11     10     11   2
    12     11     12   1
    13     12     13   2
    14     13      8   1
    15     25     26   2
    16     24     25   1
    17     23     24   2
    18     22     23   1
    19     21     22   2
    20     21     26   1
    21     19     20   2
    22     18     19   1
    23     17     18   2
    24     16     17   1
    25     15     16   2
    26     15     20   1
    27     14     15   1
    28     14     21   1
    29     11     14   1
    30     27     28   2
    31     28     29   1
    32     29     30   2
    33     30     31   1
    34     31     32   2
    35     32     27   1
    36      7     27   1
    37      1     33   1
    38      2     34   1
    39      3     35   1
    40      5     36   1
    41      6     37   1
    42      9     38   1
    43     10     39   1
    44     12     40   1
    45     13     41   1
    46     16     42   1
    47     17     43   1
    48     18     44   1
    49     19     45   1
    50     20     46   1
    51     22     47   1
    52     23     48   1
    53     24     49   1
    54     25     50   1
    55     26     51   1
    56     28     52   1
    57     29     53   1
    58     31     54   1
    59     32     55   1
    60     56     57   2
    61     57     58   1
    62     58     59   2
    63     59     60   1
    64     60     61   2
    65     61     56   1
    66     59     62   1
    67     62     63   1
    68     63     64   2
    69     64     60   1
    70     57     65   1
    71     58     66   1
    72     61     67   1
    73     62     68   1
    74     63     69   1
    75     64     70   1
    76     30     56   1
