# Produced with molli package
@<TRIPOS>MOLECULE
J_1_R
67 72 0 0 0
SMALL
USER_CHARGES

@<TRIPOS>ATOM
     1 C      -5.855242     4.232542     0.227685 C          1 UNL1 0.000
     2 C      -6.448633     3.121677    -0.364470 C          1 UNL1 0.000
     3 C      -5.827268     1.868298    -0.296273 C          1 UNL1 0.000
     4 C      -4.623911     1.685988     0.404909 C          1 UNL1 0.000
     5 C      -4.032324     2.836078     0.970556 C          1 UNL1 0.000
     6 C      -4.637215     4.093553     0.882004 C          1 UNL1 0.000
     7 N      -3.978233     0.394132     0.530166 N          1 UNL1 0.000
     8 C      -4.682455    -0.872592     0.592580 C          1 UNL1 0.000
     9 C      -6.047109    -0.964055     0.915688 C          1 UNL1 0.000
    10 C      -6.730674    -2.187437     0.881821 C          1 UNL1 0.000
    11 C      -6.048391    -3.380730     0.620978 C          1 UNL1 0.000
    12 C      -4.672382    -3.323245     0.388550 C          1 UNL1 0.000
    13 C      -4.010432    -2.089515     0.346345 C          1 UNL1 0.000
    14 N      -6.746638    -4.637285     0.602485 N          1 UNL1 0.000
    15 C      -7.010830    -5.312094     1.860399 C          1 UNL1 0.000
    16 C      -7.030538    -4.616384     3.086052 C          1 UNL1 0.000
    17 C      -7.323370    -5.258664     4.294736 C          1 UNL1 0.000
    18 C      -7.586491    -6.622539     4.313410 C          1 UNL1 0.000
    19 C      -7.526659    -7.347511     3.128638 C          1 UNL1 0.000
    20 C      -7.225052    -6.702386     1.922623 C          1 UNL1 0.000
    21 C      -7.218088    -5.136005    -0.676682 C          1 UNL1 0.000
    22 C      -8.429747    -5.843375    -0.791919 C          1 UNL1 0.000
    23 C      -8.870380    -6.349490    -2.021145 C          1 UNL1 0.000
    24 C      -8.124297    -6.132712    -3.174599 C          1 UNL1 0.000
    25 C      -6.946542    -5.398787    -3.100819 C          1 UNL1 0.000
    26 C      -6.504086    -4.902754    -1.868807 C          1 UNL1 0.000
    27 C      -2.538680     0.384288     0.542869 C          1 UNL1 0.000
    28 C      -1.825252     0.658627    -0.632231 C          1 UNL1 0.000
    29 C      -0.428983     0.675655    -0.621375 C          1 UNL1 0.000
    30 C       0.283927     0.433106     0.564228 C          1 UNL1 0.000
    31 C      -0.437467     0.142055     1.733320 C          1 UNL1 0.000
    32 C      -1.835184     0.115059     1.724901 C          1 UNL1 0.000
    33 H      -6.336028     5.205492     0.171483 H          1 UNL1 0.000
    34 H      -7.395569     3.227713    -0.887601 H          1 UNL1 0.000
    35 H      -6.297909     1.037783    -0.815315 H          1 UNL1 0.000
    36 H      -3.089763     2.765104     1.507588 H          1 UNL1 0.000
    37 H      -4.155987     4.957995     1.331864 H          1 UNL1 0.000
    38 H      -6.613791    -0.084731     1.206834 H          1 UNL1 0.000
    39 H      -7.797700    -2.211657     1.089913 H          1 UNL1 0.000
    40 H      -4.114116    -4.238243     0.206262 H          1 UNL1 0.000
    41 H      -2.950288    -2.104537     0.105025 H          1 UNL1 0.000
    42 H      -6.832738    -3.550252     3.131385 H          1 UNL1 0.000
    43 H      -7.346503    -4.685028     5.217754 H          1 UNL1 0.000
    44 H      -7.823254    -7.119991     5.249856 H          1 UNL1 0.000
    45 H      -7.709331    -8.418825     3.137685 H          1 UNL1 0.000
    46 H      -7.147805    -7.314043     1.027369 H          1 UNL1 0.000
    47 H      -9.061171    -5.999153     0.079114 H          1 UNL1 0.000
    48 H      -9.801144    -6.908143    -2.073761 H          1 UNL1 0.000
    49 H      -8.464091    -6.524799    -4.129388 H          1 UNL1 0.000
    50 H      -6.363598    -5.210684    -3.998914 H          1 UNL1 0.000
    51 H      -5.573780    -4.344286    -1.864956 H          1 UNL1 0.000
    52 H      -2.361964     0.844350    -1.559409 H          1 UNL1 0.000
    53 H       0.102777     0.870425    -1.550476 H          1 UNL1 0.000
    54 H       0.092827    -0.056395     2.662843 H          1 UNL1 0.000
    55 H      -2.378730    -0.095186     2.642591 H          1 UNL1 0.000
    56 C       1.746451     0.499636     0.582929 C          1 UNL1 0.000
    57 N       2.394091    -0.674192     0.794936 N          1 UNL1 0.000
    58 C       3.750953    -0.653922     0.790005 C          1 UNL1 0.000
    59 C       4.489004     0.502077     0.594426 C          1 UNL1 0.000
    60 C       3.818752     1.709033     0.394441 C          1 UNL1 0.000
    61 C       2.424403     1.704133     0.385889 C          1 UNL1 0.000
    62 N       5.941955     0.444367     0.594667 N          1 UNL1 0.000
    63 O       6.477133    -0.603743     0.981708 O          1 UNL1 0.000
    64 O       6.555405     1.448143     0.207206 O          1 UNL1 0.000
    65 H       4.215187    -1.624735     0.946056 H          1 UNL1 0.000
    66 H       4.355542     2.642847     0.246604 H          1 UNL1 0.000
    67 H       1.873780     2.628594     0.234824 H          1 UNL1 0.000
@<TRIPOS>BOND
     1      1      2   2
     2      2      3   1
     3      3      4   2
     4      4      5   1
     5      5      6   2
     6      6      1   1
     7      4      7   1
     8      7      8   1
     9      8      9   2
    10      9     10   1
    11     10     11   2
    12     11     12   1
    13     12     13   2
    14     13      8   1
    15     25     26   2
    16     24     25   1
    17     23     24   2
    18     22     23   1
    19     21     22   2
    20     21     26   1
    21     19     20   2
    22     18     19   1
    23     17     18   2
    24     16     17   1
    25     15     16   2
    26     15     20   1
    27     14     15   1
    28     14     21   1
    29     11     14   1
    30     27     28   2
    31     28     29   1
    32     29     30   2
    33     30     31   1
    34     31     32   2
    35     32     27   1
    36      7     27   1
    37      1     33   1
    38      2     34   1
    39      3     35   1
    40      5     36   1
    41      6     37   1
    42      9     38   1
    43     10     39   1
    44     12     40   1
    45     13     41   1
    46     16     42   1
    47     17     43   1
    48     18     44   1
    49     19     45   1
    50     20     46   1
    51     22     47   1
    52     23     48   1
    53     24     49   1
    54     25     50   1
    55     26     51   1
    56     28     52   1
    57     29     53   1
    58     31     54   1
    59     32     55   1
    60     56     57   2
    61     57     58   1
    62     58     59   2
    63     59     60   1
    64     60     61   2
    65     61     56   1
    66     62     63   2
    67     62     64   1
    68     59     62   1
    69     58     65   1
    70     60     66   1
    71     61     67   1
    72     30     56   1
