# Produced with molli package
@<TRIPOS>MOLECULE
J_1_Q
64 69 0 0 0
SMALL
USER_CHARGES

@<TRIPOS>ATOM
     1 C      -5.958020     4.147669     0.294178 C          1 UNL1 0.000
     2 C      -6.538626     3.024450    -0.288873 C          1 UNL1 0.000
     3 C      -5.895934     1.783631    -0.219081 C          1 UNL1 0.000
     4 C      -4.667167     1.637719     0.447435 C          1 UNL1 0.000
     5 C      -4.093896     2.792647     1.015441 C          1 UNL1 0.000
     6 C      -4.732592     4.033687     0.942387 C          1 UNL1 0.000
     7 N      -3.991442     0.362862     0.530412 N          1 UNL1 0.000
     8 C      -4.696732    -0.895062     0.596990 C          1 UNL1 0.000
     9 C      -5.936951    -1.010179     1.247643 C          1 UNL1 0.000
    10 C      -6.634302    -2.224673     1.274078 C          1 UNL1 0.000
    11 C      -6.110316    -3.365871     0.650982 C          1 UNL1 0.000
    12 C      -4.858087    -3.270248     0.030561 C          1 UNL1 0.000
    13 C      -4.159338    -2.057625     0.014072 C          1 UNL1 0.000
    14 N      -6.845602    -4.604844     0.635897 N          1 UNL1 0.000
    15 C      -7.336043    -5.148429     1.882253 C          1 UNL1 0.000
    16 C      -6.603929    -4.989830     3.074625 C          1 UNL1 0.000
    17 C      -7.069156    -5.508346     4.286458 C          1 UNL1 0.000
    18 C      -8.276049    -6.199694     4.330515 C          1 UNL1 0.000
    19 C      -9.021320    -6.365089     3.166244 C          1 UNL1 0.000
    20 C      -8.559132    -5.838283     1.955894 C          1 UNL1 0.000
    21 C      -7.103988    -5.250328    -0.632668 C          1 UNL1 0.000
    22 C      -7.145930    -6.650687    -0.751967 C          1 UNL1 0.000
    23 C      -7.416605    -7.264449    -1.979680 C          1 UNL1 0.000
    24 C      -7.635189    -6.489922    -3.116023 C          1 UNL1 0.000
    25 C      -7.579675    -5.102400    -3.027766 C          1 UNL1 0.000
    26 C      -7.316981    -4.489897    -1.799011 C          1 UNL1 0.000
    27 C      -2.555613     0.353360     0.488999 C          1 UNL1 0.000
    28 C      -1.878961     0.730081    -0.679539 C          1 UNL1 0.000
    29 C      -0.482715     0.749944    -0.712457 C          1 UNL1 0.000
    30 C       0.266726     0.413988     0.426296 C          1 UNL1 0.000
    31 C      -0.417033     0.024400     1.589055 C          1 UNL1 0.000
    32 C      -1.814062    -0.012703     1.619994 C          1 UNL1 0.000
    33 H      -6.457295     5.111427     0.239398 H          1 UNL1 0.000
    34 H      -7.491106     3.111849    -0.805055 H          1 UNL1 0.000
    35 H      -6.359794     0.932682    -0.711388 H          1 UNL1 0.000
    36 H      -3.144215     2.734126     1.541438 H          1 UNL1 0.000
    37 H      -4.270892     4.906937     1.395719 H          1 UNL1 0.000
    38 H      -6.377046    -0.152011     1.749683 H          1 UNL1 0.000
    39 H      -7.604414    -2.269583     1.763421 H          1 UNL1 0.000
    40 H      -4.415259    -4.145362    -0.439416 H          1 UNL1 0.000
    41 H      -3.195763    -2.031334    -0.488973 H          1 UNL1 0.000
    42 H      -5.648192    -4.470778     3.066919 H          1 UNL1 0.000
    43 H      -6.483906    -5.373250     5.192224 H          1 UNL1 0.000
    44 H      -8.636540    -6.606528     5.271569 H          1 UNL1 0.000
    45 H      -9.967050    -6.899728     3.197085 H          1 UNL1 0.000
    46 H      -9.176487    -5.958902     1.069089 H          1 UNL1 0.000
    47 H      -6.954329    -7.281021     0.112996 H          1 UNL1 0.000
    48 H      -7.452573    -8.348690    -2.046174 H          1 UNL1 0.000
    49 H      -7.845473    -6.966760    -4.069760 H          1 UNL1 0.000
    50 H      -7.745360    -4.491936    -3.911581 H          1 UNL1 0.000
    51 H      -7.299746    -3.403377    -1.757259 H          1 UNL1 0.000
    52 H      -2.444227     0.991210    -1.571025 H          1 UNL1 0.000
    53 H       0.019799     1.021821    -1.638786 H          1 UNL1 0.000
    54 H       0.142101    -0.244891     2.483384 H          1 UNL1 0.000
    55 H      -2.326982    -0.298999     2.534792 H          1 UNL1 0.000
    56 C       1.725928     0.483960     0.406817 C          1 UNL1 0.000
    57 N       2.391377    -0.698533     0.383471 N          1 UNL1 0.000
    58 C       3.741315    -0.612142     0.348891 C          1 UNL1 0.000
    59 C       4.412273     0.599343     0.350168 C          1 UNL1 0.000
    60 N       3.764810     1.784917     0.383198 N          1 UNL1 0.000
    61 C       2.411818     1.697418     0.409443 C          1 UNL1 0.000
    62 H       4.275770    -1.554843     0.317329 H          1 UNL1 0.000
    63 H       5.494671     0.648431     0.324167 H          1 UNL1 0.000
    64 H       1.883668     2.645012     0.439801 H          1 UNL1 0.000
@<TRIPOS>BOND
     1      1      2   2
     2      2      3   1
     3      3      4   2
     4      4      5   1
     5      5      6   2
     6      6      1   1
     7      4      7   1
     8      7      8   1
     9      8      9   2
    10      9     10   1
    11     10     11   2
    12     11     12   1
    13     12     13   2
    14     13      8   1
    15     25     26   2
    16     24     25   1
    17     23     24   2
    18     22     23   1
    19     21     22   2
    20     21     26   1
    21     19     20   2
    22     18     19   1
    23     17     18   2
    24     16     17   1
    25     15     16   2
    26     15     20   1
    27     14     15   1
    28     14     21   1
    29     11     14   1
    30     27     28   2
    31     28     29   1
    32     29     30   2
    33     30     31   1
    34     31     32   2
    35     32     27   1
    36      7     27   1
    37      1     33   1
    38      2     34   1
    39      3     35   1
    40      5     36   1
    41      6     37   1
    42      9     38   1
    43     10     39   1
    44     12     40   1
    45     13     41   1
    46     16     42   1
    47     17     43   1
    48     18     44   1
    49     19     45   1
    50     20     46   1
    51     22     47   1
    52     23     48   1
    53     24     49   1
    54     25     50   1
    55     26     51   1
    56     28     52   1
    57     29     53   1
    58     31     54   1
    59     32     55   1
    60     56     57   2
    61     57     58   1
    62     58     59   2
    63     59     60   1
    64     60     61   2
    65     61     56   1
    66     58     62   1
    67     59     63   1
    68     61     64   1
    69     30     56   1
