# Produced with molli package
@<TRIPOS>MOLECULE
J_1_N
63 68 0 0 0
SMALL
USER_CHARGES

@<TRIPOS>ATOM
     1 C      -5.905948     4.206711     0.162680 C          1 UNL1 0.000
     2 C      -6.513304     3.070189    -0.364493 C          1 UNL1 0.000
     3 C      -5.886800     1.822792    -0.259706 C          1 UNL1 0.000
     4 C      -4.648069     1.682512     0.388917 C          1 UNL1 0.000
     5 C      -4.051270     2.851207     0.904659 C          1 UNL1 0.000
     6 C      -4.671511     4.098856     0.793392 C          1 UNL1 0.000
     7 N      -3.981248     0.404469     0.501252 N          1 UNL1 0.000
     8 C      -4.685729    -0.854856     0.557505 C          1 UNL1 0.000
     9 C      -5.930297    -0.980975     1.196622 C          1 UNL1 0.000
    10 C      -6.614257    -2.204152     1.218427 C          1 UNL1 0.000
    11 C      -6.071208    -3.340106     0.601257 C          1 UNL1 0.000
    12 C      -4.814482    -3.233047    -0.006684 C          1 UNL1 0.000
    13 C      -4.131700    -2.013021    -0.020600 C          1 UNL1 0.000
    14 N      -6.790244    -4.588620     0.583496 N          1 UNL1 0.000
    15 C      -7.223420    -5.158799     1.838693 C          1 UNL1 0.000
    16 C      -6.439576    -5.017808     3.000376 C          1 UNL1 0.000
    17 C      -6.841508    -5.571304     4.219090 C          1 UNL1 0.000
    18 C      -8.037364    -6.277859     4.301438 C          1 UNL1 0.000
    19 C      -8.835699    -6.421245     3.169477 C          1 UNL1 0.000
    20 C      -8.436355    -5.859967     1.951990 C          1 UNL1 0.000
    21 C      -7.032568    -5.241472    -0.686320 C          1 UNL1 0.000
    22 C      -7.107310    -6.641121    -0.799407 C          1 UNL1 0.000
    23 C      -7.345096    -7.258273    -2.032956 C          1 UNL1 0.000
    24 C      -7.493186    -6.489384    -3.183958 C          1 UNL1 0.000
    25 C      -7.406359    -5.103644    -3.103289 C          1 UNL1 0.000
    26 C      -7.183268    -4.487900    -1.868008 C          1 UNL1 0.000
    27 C      -2.543717     0.383966     0.501453 C          1 UNL1 0.000
    28 C      -1.828714     0.771815    -0.641937 C          1 UNL1 0.000
    29 C      -0.432924     0.764026    -0.637878 C          1 UNL1 0.000
    30 C       0.263732     0.380978     0.514010 C          1 UNL1 0.000
    31 C      -0.445147    -0.004767     1.658235 C          1 UNL1 0.000
    32 C      -1.841494    -0.013080     1.648937 C          1 UNL1 0.000
    33 H      -6.390854     5.175552     0.077367 H          1 UNL1 0.000
    34 H      -7.473799     3.152395    -0.866560 H          1 UNL1 0.000
    35 H      -6.372793     0.963544    -0.714309 H          1 UNL1 0.000
    36 H      -3.092481     2.801508     1.415364 H          1 UNL1 0.000
    37 H      -4.186831     4.981691     1.202038 H          1 UNL1 0.000
    38 H      -6.382453    -0.126874     1.694853 H          1 UNL1 0.000
    39 H      -7.587501    -2.261590     1.700310 H          1 UNL1 0.000
    40 H      -4.357537    -4.104551    -0.469594 H          1 UNL1 0.000
    41 H      -3.164846    -1.976888    -0.516368 H          1 UNL1 0.000
    42 H      -5.490542    -4.488077     2.961238 H          1 UNL1 0.000
    43 H      -6.215247    -5.452503     5.099375 H          1 UNL1 0.000
    44 H      -8.347987    -6.713439     5.247453 H          1 UNL1 0.000
    45 H      -9.773449    -6.967121     3.231788 H          1 UNL1 0.000
    46 H      -9.091797    -5.965117     1.090927 H          1 UNL1 0.000
    47 H      -6.963093    -7.273471     0.072957 H          1 UNL1 0.000
    48 H      -7.407011    -8.341803    -2.092401 H          1 UNL1 0.000
    49 H      -7.671945    -6.969149    -4.142602 H          1 UNL1 0.000
    50 H      -7.514338    -4.496444    -3.998249 H          1 UNL1 0.000
    51 H      -7.139677    -3.401674    -1.837626 H          1 UNL1 0.000
    52 H      -2.364786     1.064578    -1.541589 H          1 UNL1 0.000
    53 H       0.103820     1.051218    -1.538862 H          1 UNL1 0.000
    54 H       0.082226    -0.282472     2.567943 H          1 UNL1 0.000
    55 H      -2.386698    -0.298670     2.545122 H          1 UNL1 0.000
    56 C       1.716153     0.411841     0.523582 C          1 UNL1 0.000
    57 C       2.464112    -0.730915     0.729102 C          1 UNL1 0.000
    58 S       4.147805    -0.422184     0.686551 S          1 UNL1 0.000
    59 C       3.891161     1.242594     0.390234 C          1 UNL1 0.000
    60 C       2.551487     1.554291     0.318741 C          1 UNL1 0.000
    61 H       2.109086    -1.739033     0.895657 H          1 UNL1 0.000
    62 H       4.733380     1.912068     0.282129 H          1 UNL1 0.000
    63 H       2.185103     2.558393     0.140538 H          1 UNL1 0.000
@<TRIPOS>BOND
     1      1      2   2
     2      2      3   1
     3      3      4   2
     4      4      5   1
     5      5      6   2
     6      6      1   1
     7      4      7   1
     8      7      8   1
     9      8      9   2
    10      9     10   1
    11     10     11   2
    12     11     12   1
    13     12     13   2
    14     13      8   1
    15     25     26   2
    16     24     25   1
    17     23     24   2
    18     22     23   1
    19     21     22   2
    20     21     26   1
    21     19     20   2
    22     18     19   1
    23     17     18   2
    24     16     17   1
    25     15     16   2
    26     15     20   1
    27     14     15   1
    28     14     21   1
    29     11     14   1
    30     27     28   2
    31     28     29   1
    32     29     30   2
    33     30     31   1
    34     31     32   2
    35     32     27   1
    36      7     27   1
    37      1     33   1
    38      2     34   1
    39      3     35   1
    40      5     36   1
    41      6     37   1
    42      9     38   1
    43     10     39   1
    44     12     40   1
    45     13     41   1
    46     16     42   1
    47     17     43   1
    48     18     44   1
    49     19     45   1
    50     20     46   1
    51     22     47   1
    52     23     48   1
    53     24     49   1
    54     25     50   1
    55     26     51   1
    56     28     52   1
    57     29     53   1
    58     31     54   1
    59     32     55   1
    60     56     57   2
    61     57     58   1
    62     58     59   1
    63     59     60   2
    64     60     56   1
    65     57     61   1
    66     59     62   1
    67     60     63   1
    68     30     56   1
