# Produced with molli package
@<TRIPOS>MOLECULE
J_2_T
69 74 0 0 0
SMALL
USER_CHARGES

@<TRIPOS>ATOM
     1 C      -3.806794     4.212542    -1.689353 C          1 UNL1 0.000
     2 C      -4.357541     3.018867    -2.144125 C          1 UNL1 0.000
     3 C      -3.722024     1.800080    -1.874382 C          1 UNL1 0.000
     4 C      -2.543517     1.739094    -1.111102 C          1 UNL1 0.000
     5 C      -1.986138     2.969515    -0.706768 C          1 UNL1 0.000
     6 C      -2.610585     4.189865    -0.983482 C          1 UNL1 0.000
     7 N      -1.895849     0.487080    -0.768540 N          1 UNL1 0.000
     8 C      -2.591868    -0.782517    -0.663782 C          1 UNL1 0.000
     9 C      -3.959856    -0.863622    -0.351062 C          1 UNL1 0.000
    10 C      -4.641788    -2.088446    -0.350654 C          1 UNL1 0.000
    11 C      -3.955022    -3.287012    -0.570952 C          1 UNL1 0.000
    12 C      -2.575314    -3.236504    -0.785140 C          1 UNL1 0.000
    13 C      -1.912585    -2.004452    -0.854939 C          1 UNL1 0.000
    14 N      -4.652325    -4.543092    -0.579922 N          1 UNL1 0.000
    15 C      -4.854454    -5.243122     0.671510 C          1 UNL1 0.000
    16 C      -4.936123    -4.558664     1.898226 C          1 UNL1 0.000
    17 C      -5.162621    -5.235646     3.101732 C          1 UNL1 0.000
    18 C      -5.294240    -6.620645     3.109290 C          1 UNL1 0.000
    19 C      -5.179209    -7.327841     1.918294 C          1 UNL1 0.000
    20 C      -4.950406    -6.648273     0.716503 C          1 UNL1 0.000
    21 C      -5.147342    -5.048129    -1.844694 C          1 UNL1 0.000
    22 C      -6.354201    -5.770692    -1.921667 C          1 UNL1 0.000
    23 C      -6.822727    -6.283199    -3.137037 C          1 UNL1 0.000
    24 C      -6.106861    -6.067186    -4.309146 C          1 UNL1 0.000
    25 C      -4.930102    -5.326141    -4.269097 C          1 UNL1 0.000
    26 C      -4.462519    -4.817096    -3.052207 C          1 UNL1 0.000
    27 C      -0.452462     0.488663    -0.659303 C          1 UNL1 0.000
    28 C       0.303402     0.586424    -1.846807 C          1 UNL1 0.000
    29 C       1.695705     0.551704    -1.812264 C          1 UNL1 0.000
    30 C       2.352810     0.428495    -0.592529 C          1 UNL1 0.000
    31 C       1.618767     0.347599     0.593702 C          1 UNL1 0.000
    32 C       0.210990     0.378524     0.588024 C          1 UNL1 0.000
    33 H      -4.301218     5.157887    -1.895034 H          1 UNL1 0.000
    34 H      -5.282826     3.030754    -2.714170 H          1 UNL1 0.000
    35 H      -4.163118     0.897425    -2.287778 H          1 UNL1 0.000
    36 H      -1.053694     2.996677    -0.151854 H          1 UNL1 0.000
    37 H      -2.159622     5.117186    -0.640388 H          1 UNL1 0.000
    38 H      -4.524113     0.030084    -0.099168 H          1 UNL1 0.000
    39 H      -5.711005    -2.107055    -0.155090 H          1 UNL1 0.000
    40 H      -2.016687    -4.156730    -0.936131 H          1 UNL1 0.000
    41 H      -0.848922    -2.022466    -1.076846 H          1 UNL1 0.000
    42 H      -4.846233    -3.477003     1.942653 H          1 UNL1 0.000
    43 H      -5.239435    -4.675411     4.029390 H          1 UNL1 0.000
    44 H      -5.476359    -7.145737     4.042929 H          1 UNL1 0.000
    45 H      -5.263131    -8.411895     1.918382 H          1 UNL1 0.000
    46 H      -4.833498    -7.236893    -0.189606 H          1 UNL1 0.000
    47 H      -6.955210    -5.931239    -1.030496 H          1 UNL1 0.000
    48 H      -7.751585    -6.847713    -3.163488 H          1 UNL1 0.000
    49 H      -6.467455    -6.466497    -5.253271 H          1 UNL1 0.000
    50 H      -4.369586    -5.143755    -5.181936 H          1 UNL1 0.000
    51 H      -3.534744    -4.253043    -3.069201 H          1 UNL1 0.000
    52 H      -0.208842     0.671847    -2.802595 H          1 UNL1 0.000
    53 H       2.263920     0.617509    -2.736268 H          1 UNL1 0.000
    54 H       3.439118     0.402672    -0.560009 H          1 UNL1 0.000
    55 H       2.152328     0.269793     1.539710 H          1 UNL1 0.000
    56 C      -0.499766     0.354260     1.875466 C          1 UNL1 0.000
    57 C      -0.824502    -0.854587     2.504717 C          1 UNL1 0.000
    58 C      -1.474569    -0.866173     3.743646 C          1 UNL1 0.000
    59 C      -1.812964     0.333009     4.379395 C          1 UNL1 0.000
    60 C      -1.482766     1.543043     3.762879 C          1 UNL1 0.000
    61 C      -0.828730     1.551204     2.529013 C          1 UNL1 0.000
    62 C      -2.500160     0.339758     5.711810 C          1 UNL1 0.000
    63 H      -0.574047    -1.800104     2.029064 H          1 UNL1 0.000
    64 H      -1.713475    -1.821576     4.204455 H          1 UNL1 0.000
    65 H      -1.729877     2.488946     4.239128 H          1 UNL1 0.000
    66 H      -0.571240     2.506632     2.079896 H          1 UNL1 0.000
    67 H      -3.420180     0.931173     5.659907 H          1 UNL1 0.000
    68 H      -1.839892     0.769298     6.472194 H          1 UNL1 0.000
    69 H      -2.771407    -0.672059     6.029400 H          1 UNL1 0.000
@<TRIPOS>BOND
     1      1      2   2
     2      2      3   1
     3      3      4   2
     4      4      5   1
     5      5      6   2
     6      6      1   1
     7      4      7   1
     8      7      8   1
     9      8      9   2
    10      9     10   1
    11     10     11   2
    12     11     12   1
    13     12     13   2
    14     13      8   1
    15     25     26   2
    16     24     25   1
    17     23     24   2
    18     22     23   1
    19     21     22   2
    20     21     26   1
    21     19     20   2
    22     18     19   1
    23     17     18   2
    24     16     17   1
    25     15     16   2
    26     15     20   1
    27     14     15   1
    28     14     21   1
    29     11     14   1
    30     27     28   2
    31     28     29   1
    32     29     30   2
    33     30     31   1
    34     31     32   2
    35     32     27   1
    36      7     27   1
    37      1     33   1
    38      2     34   1
    39      3     35   1
    40      5     36   1
    41      6     37   1
    42      9     38   1
    43     10     39   1
    44     12     40   1
    45     13     41   1
    46     16     42   1
    47     17     43   1
    48     18     44   1
    49     19     45   1
    50     20     46   1
    51     22     47   1
    52     23     48   1
    53     24     49   1
    54     25     50   1
    55     26     51   1
    56     28     52   1
    57     29     53   1
    58     30     54   1
    59     31     55   1
    60     56     57   2
    61     57     58   1
    62     58     59   2
    63     59     60   1
    64     60     61   2
    65     61     56   1
    66     59     62   1
    67     57     63   1
    68     58     64   1
    69     60     65   1
    70     61     66   1
    71     62     67   1
    72     62     68   1
    73     62     69   1
    74     32     56   1
