# Produced with molli package
@<TRIPOS>MOLECULE
J_2_S
71 76 0 0 0
SMALL
USER_CHARGES

@<TRIPOS>ATOM
     1 C      -3.673952     4.296610    -0.512155 C          1 UNL1 0.000
     2 C      -4.363087     3.204346     0.004065 C          1 UNL1 0.000
     3 C      -3.781578     1.927817    -0.006514 C          1 UNL1 0.000
     4 C      -2.527790     1.694403    -0.593015 C          1 UNL1 0.000
     5 C      -1.841399     2.833329    -1.075070 C          1 UNL1 0.000
     6 C      -2.400019     4.115129    -1.031285 C          1 UNL1 0.000
     7 N      -1.910177     0.380548    -0.662487 N          1 UNL1 0.000
     8 C      -2.612735    -0.891123    -0.748605 C          1 UNL1 0.000
     9 C      -3.990909    -1.000331    -0.992330 C          1 UNL1 0.000
    10 C      -4.649918    -2.239287    -0.972108 C          1 UNL1 0.000
    11 C      -3.931786    -3.429457    -0.820558 C          1 UNL1 0.000
    12 C      -2.546641    -3.358142    -0.679540 C          1 UNL1 0.000
    13 C      -1.909024    -2.113068    -0.619904 C          1 UNL1 0.000
    14 N      -4.602892    -4.701176    -0.826441 N          1 UNL1 0.000
    15 C      -5.038380    -5.240736     0.451414 C          1 UNL1 0.000
    16 C      -4.405940    -4.866392     1.657261 C          1 UNL1 0.000
    17 C      -4.813269    -5.372408     2.897583 C          1 UNL1 0.000
    18 C      -5.869865    -6.270556     2.968894 C          1 UNL1 0.000
    19 C      -6.533889    -6.638460     1.804024 C          1 UNL1 0.000
    20 C      -6.135787    -6.113250     0.566642 C          1 UNL1 0.000
    21 C      -4.854318    -5.332742    -2.109897 C          1 UNL1 0.000
    22 C      -5.012022    -6.723483    -2.246504 C          1 UNL1 0.000
    23 C      -5.314888    -7.311284    -3.482682 C          1 UNL1 0.000
    24 C      -5.421011    -6.526571    -4.626014 C          1 UNL1 0.000
    25 C      -5.201484    -5.158750    -4.537801 C          1 UNL1 0.000
    26 C      -4.915889    -4.574728    -3.298999 C          1 UNL1 0.000
    27 C      -0.461329     0.346000    -0.632200 C          1 UNL1 0.000
    28 C       0.235458     0.247161    -1.854092 C          1 UNL1 0.000
    29 C       1.627599     0.227807    -1.875840 C          1 UNL1 0.000
    30 C       2.338513     0.291507    -0.680630 C          1 UNL1 0.000
    31 C       1.659876     0.369051     0.539116 C          1 UNL1 0.000
    32 C       0.254854     0.397401     0.590239 C          1 UNL1 0.000
    33 H      -4.121188     5.286794    -0.496861 H          1 UNL1 0.000
    34 H      -5.354271     3.342782     0.428522 H          1 UNL1 0.000
    35 H      -4.325762     1.127278     0.484891 H          1 UNL1 0.000
    36 H      -0.846818     2.744735    -1.503676 H          1 UNL1 0.000
    37 H      -1.835802     4.963303    -1.410483 H          1 UNL1 0.000
    38 H      -4.598284    -0.132134    -1.220403 H          1 UNL1 0.000
    39 H      -5.727718    -2.277842    -1.111760 H          1 UNL1 0.000
    40 H      -1.962292    -4.269737    -0.583571 H          1 UNL1 0.000
    41 H      -0.833278    -2.128629    -0.466951 H          1 UNL1 0.000
    42 H      -3.572320    -4.170389     1.661399 H          1 UNL1 0.000
    43 H      -4.300894    -5.058033     3.803719 H          1 UNL1 0.000
    44 H      -6.183391    -6.669218     3.929928 H          1 UNL1 0.000
    45 H      -7.373647    -7.326722     1.854146 H          1 UNL1 0.000
    46 H      -6.723572    -6.386072    -0.304917 H          1 UNL1 0.000
    47 H      -4.889295    -7.382050    -1.390959 H          1 UNL1 0.000
    48 H      -5.462732    -8.386054    -3.548817 H          1 UNL1 0.000
    49 H      -5.658872    -6.979795    -5.584355 H          1 UNL1 0.000
    50 H      -5.255316    -4.536006    -5.427022 H          1 UNL1 0.000
    51 H      -4.756676    -3.500937    -3.289520 H          1 UNL1 0.000
    52 H      -0.322096     0.198134    -2.786685 H          1 UNL1 0.000
    53 H       2.155120     0.163487    -2.823866 H          1 UNL1 0.000
    54 H       3.425555     0.273974    -0.694560 H          1 UNL1 0.000
    55 H       2.235842     0.401957     1.462331 H          1 UNL1 0.000
    56 C      -0.415702     0.430517     1.898842 C          1 UNL1 0.000
    57 C      -0.637988    -0.753105     2.616573 C          1 UNL1 0.000
    58 C      -1.276360    -0.727912     3.860289 C          1 UNL1 0.000
    59 C      -1.708562     0.483461     4.415569 C          1 UNL1 0.000
    60 C      -1.493804     1.668772     3.704923 C          1 UNL1 0.000
    61 C      -0.844620     1.639563     2.463384 C          1 UNL1 0.000
    62 C      -2.381765     0.443818     5.749894 C          1 UNL1 0.000
    63 C      -2.945917     1.706789     6.347212 C          1 UNL1 0.000
    64 O      -2.501615    -0.631097     6.339021 O          1 UNL1 0.000
    65 H      -0.322061    -1.709631     2.205243 H          1 UNL1 0.000
    66 H      -1.439498    -1.664885     4.390238 H          1 UNL1 0.000
    67 H      -1.817881     2.633311     4.080761 H          1 UNL1 0.000
    68 H      -0.687169     2.572747     1.925054 H          1 UNL1 0.000
    69 H      -3.953165     1.875956     5.958494 H          1 UNL1 0.000
    70 H      -2.310834     2.573656     6.159462 H          1 UNL1 0.000
    71 H      -2.997883     1.588094     7.434551 H          1 UNL1 0.000
@<TRIPOS>BOND
     1      1      2   2
     2      2      3   1
     3      3      4   2
     4      4      5   1
     5      5      6   2
     6      6      1   1
     7      4      7   1
     8      7      8   1
     9      8      9   2
    10      9     10   1
    11     10     11   2
    12     11     12   1
    13     12     13   2
    14     13      8   1
    15     25     26   2
    16     24     25   1
    17     23     24   2
    18     22     23   1
    19     21     22   2
    20     21     26   1
    21     19     20   2
    22     18     19   1
    23     17     18   2
    24     16     17   1
    25     15     16   2
    26     15     20   1
    27     14     15   1
    28     14     21   1
    29     11     14   1
    30     27     28   2
    31     28     29   1
    32     29     30   2
    33     30     31   1
    34     31     32   2
    35     32     27   1
    36      7     27   1
    37      1     33   1
    38      2     34   1
    39      3     35   1
    40      5     36   1
    41      6     37   1
    42      9     38   1
    43     10     39   1
    44     12     40   1
    45     13     41   1
    46     16     42   1
    47     17     43   1
    48     18     44   1
    49     19     45   1
    50     20     46   1
    51     22     47   1
    52     23     48   1
    53     24     49   1
    54     25     50   1
    55     26     51   1
    56     28     52   1
    57     29     53   1
    58     30     54   1
    59     31     55   1
    60     56     57   2
    61     57     58   1
    62     58     59   2
    63     59     60   1
    64     60     61   2
    65     61     56   1
    66     59     62   1
    67     62     63   1
    68     62     64   2
    69     57     65   1
    70     58     66   1
    71     60     67   1
    72     61     68   1
    73     63     69   1
    74     63     70   1
    75     63     71   1
    76     32     56   1
