# Produced with molli package
@<TRIPOS>MOLECULE
J_2_K
68 73 0 0 0
SMALL
USER_CHARGES

@<TRIPOS>ATOM
     1 C      -3.769511     4.286750    -1.135132 C          1 UNL1 0.000
     2 C      -4.452137     3.135269    -1.509586 C          1 UNL1 0.000
     3 C      -3.827234     1.881319    -1.433050 C          1 UNL1 0.000
     4 C      -2.528690     1.732087    -0.920807 C          1 UNL1 0.000
     5 C      -1.843710     2.931815    -0.619435 C          1 UNL1 0.000
     6 C      -2.452020     4.188021    -0.714445 C          1 UNL1 0.000
     7 N      -1.882820     0.441110    -0.728359 N          1 UNL1 0.000
     8 C      -2.565718    -0.841118    -0.644614 C          1 UNL1 0.000
     9 C      -3.919699    -0.966673    -0.294098 C          1 UNL1 0.000
    10 C      -4.581696    -2.203630    -0.328790 C          1 UNL1 0.000
    11 C      -3.881162    -3.383565    -0.599531 C          1 UNL1 0.000
    12 C      -2.507826    -3.298595    -0.834991 C          1 UNL1 0.000
    13 C      -1.872088    -2.049712    -0.883899 C          1 UNL1 0.000
    14 N      -4.556144    -4.654334    -0.615240 N          1 UNL1 0.000
    15 C      -4.796109    -5.330641     0.648368 C          1 UNL1 0.000
    16 C      -4.794871    -4.631040     1.873017 C          1 UNL1 0.000
    17 C      -5.068980    -5.266763     3.089422 C          1 UNL1 0.000
    18 C      -5.336083    -6.629219     3.118056 C          1 UNL1 0.000
    19 C      -5.293499    -7.359430     1.935754 C          1 UNL1 0.000
    20 C      -5.005863    -6.720838     0.722039 C          1 UNL1 0.000
    21 C      -5.032248    -5.155230    -1.894177 C          1 UNL1 0.000
    22 C      -6.205996    -5.924972    -2.003221 C          1 UNL1 0.000
    23 C      -6.644373    -6.429891    -3.234813 C          1 UNL1 0.000
    24 C      -5.939503    -6.145182    -4.398973 C          1 UNL1 0.000
    25 C      -4.804843    -5.346343    -4.332655 C          1 UNL1 0.000
    26 C      -4.361657    -4.856121    -3.097934 C          1 UNL1 0.000
    27 C      -0.434319     0.433521    -0.668295 C          1 UNL1 0.000
    28 C       0.281959     0.466695    -1.882574 C          1 UNL1 0.000
    29 C       1.674545     0.480210    -1.885434 C          1 UNL1 0.000
    30 C       2.368152     0.473306    -0.678805 C          1 UNL1 0.000
    31 C       1.671685     0.446621     0.532955 C          1 UNL1 0.000
    32 C       0.265445     0.422632     0.565471 C          1 UNL1 0.000
    33 H      -4.254086     5.257397    -1.192137 H          1 UNL1 0.000
    34 H      -5.475115     3.207043    -1.870343 H          1 UNL1 0.000
    35 H      -4.386546     1.029707    -1.806211 H          1 UNL1 0.000
    36 H      -0.808952     2.916402    -0.290919 H          1 UNL1 0.000
    37 H      -1.890561     5.081326    -0.453745 H          1 UNL1 0.000
    38 H      -4.497882    -0.107119     0.029495 H          1 UNL1 0.000
    39 H      -5.645907    -2.249049    -0.108853 H          1 UNL1 0.000
    40 H      -1.932595    -4.203224    -1.016574 H          1 UNL1 0.000
    41 H      -0.812138    -2.049111    -1.123844 H          1 UNL1 0.000
    42 H      -4.596126    -3.564857     1.913084 H          1 UNL1 0.000
    43 H      -5.077517    -4.687929     4.009759 H          1 UNL1 0.000
    44 H      -5.563047    -7.120883     4.060042 H          1 UNL1 0.000
    45 H      -5.480318    -8.430046     1.952899 H          1 UNL1 0.000
    46 H      -4.939035    -7.339742    -0.168834 H          1 UNL1 0.000
    47 H      -6.814687    -6.132411    -1.127081 H          1 UNL1 0.000
    48 H      -7.543219    -7.039414    -3.280717 H          1 UNL1 0.000
    49 H      -6.279544    -6.533104    -5.355453 H          1 UNL1 0.000
    50 H      -4.256719    -5.101334    -5.238947 H          1 UNL1 0.000
    51 H      -3.465920    -4.243643    -3.103431 H          1 UNL1 0.000
    52 H      -0.260793     0.476587    -2.825239 H          1 UNL1 0.000
    53 H       2.215558     0.500886    -2.827935 H          1 UNL1 0.000
    54 H       3.455322     0.494825    -0.678264 H          1 UNL1 0.000
    55 H       2.235578     0.454752     1.464191 H          1 UNL1 0.000
    56 C      -0.419834     0.435770     1.867032 C          1 UNL1 0.000
    57 C      -0.763538    -0.764590     2.510745 C          1 UNL1 0.000
    58 C      -1.426946    -0.753127     3.740830 C          1 UNL1 0.000
    59 C      -1.742055     0.472717     4.334681 C          1 UNL1 0.000
    60 C      -1.396264     1.681229     3.725629 C          1 UNL1 0.000
    61 C      -0.731346     1.653886     2.498569 C          1 UNL1 0.000
    62 N      -2.441027     0.494732     5.615315 N          1 UNL1 0.000
    63 O      -2.182923     1.423238     6.391813 O          1 UNL1 0.000
    64 O      -3.247355    -0.420824     5.841457 O          1 UNL1 0.000
    65 H      -0.521746    -1.718590     2.045227 H          1 UNL1 0.000
    66 H      -1.688117    -1.694735     4.218237 H          1 UNL1 0.000
    67 H      -1.642599     2.637013     4.182230 H          1 UNL1 0.000
    68 H      -0.463543     2.597095     2.027343 H          1 UNL1 0.000
@<TRIPOS>BOND
     1      1      2   2
     2      2      3   1
     3      3      4   2
     4      4      5   1
     5      5      6   2
     6      6      1   1
     7      4      7   1
     8      7      8   1
     9      8      9   2
    10      9     10   1
    11     10     11   2
    12     11     12   1
    13     12     13   2
    14     13      8   1
    15     25     26   2
    16     24     25   1
    17     23     24   2
    18     22     23   1
    19     21     22   2
    20     21     26   1
    21     19     20   2
    22     18     19   1
    23     17     18   2
    24     16     17   1
    25     15     16   2
    26     15     20   1
    27     14     15   1
    28     14     21   1
    29     11     14   1
    30     27     28   2
    31     28     29   1
    32     29     30   2
    33     30     31   1
    34     31     32   2
    35     32     27   1
    36      7     27   1
    37      1     33   1
    38      2     34   1
    39      3     35   1
    40      5     36   1
    41      6     37   1
    42      9     38   1
    43     10     39   1
    44     12     40   1
    45     13     41   1
    46     16     42   1
    47     17     43   1
    48     18     44   1
    49     19     45   1
    50     20     46   1
    51     22     47   1
    52     23     48   1
    53     24     49   1
    54     25     50   1
    55     26     51   1
    56     28     52   1
    57     29     53   1
    58     30     54   1
    59     31     55   1
    60     56     57   2
    61     57     58   1
    62     58     59   2
    63     59     60   1
    64     60     61   2
    65     61     56   1
    66     62     63   2
    67     62     64   1
    68     59     62   1
    69     57     65   1
    70     58     66   1
    71     60     67   1
    72     61     68   1
    73     32     56   1
