# Produced with molli package
@<TRIPOS>MOLECULE
J_2_M
67 72 0 0 0
SMALL
USER_CHARGES

@<TRIPOS>ATOM
     1 C      -3.770850     4.270895    -0.999910 C          1 UNL1 0.000
     2 C      -4.463056     3.139657    -1.415172 C          1 UNL1 0.000
     3 C      -3.835660     1.883697    -1.425648 C          1 UNL1 0.000
     4 C      -2.527480     1.705768    -0.951589 C          1 UNL1 0.000
     5 C      -1.829143     2.893897    -0.632096 C          1 UNL1 0.000
     6 C      -2.438236     4.153202    -0.639661 C          1 UNL1 0.000
     7 N      -1.883173     0.405262    -0.806874 N          1 UNL1 0.000
     8 C      -2.560921    -0.883425    -0.736942 C          1 UNL1 0.000
     9 C      -3.929673    -1.022272    -0.454503 C          1 UNL1 0.000
    10 C      -4.579547    -2.264827    -0.509469 C          1 UNL1 0.000
    11 C      -3.854431    -3.440780    -0.723947 C          1 UNL1 0.000
    12 C      -2.471034    -3.347629    -0.886157 C          1 UNL1 0.000
    13 C      -1.845875    -2.091567    -0.919799 C          1 UNL1 0.000
    14 N      -4.520798    -4.720377    -0.739031 N          1 UNL1 0.000
    15 C      -4.799382    -5.346144     0.548737 C          1 UNL1 0.000
    16 C      -4.681384    -4.613415     1.753720 C          1 UNL1 0.000
    17 C      -5.006486    -5.158604     3.001349 C          1 UNL1 0.000
    18 C      -5.455935    -6.467025     3.088454 C          1 UNL1 0.000
    19 C      -5.518513    -7.241060     1.936017 C          1 UNL1 0.000
    20 C      -5.158285    -6.697058     0.692519 C          1 UNL1 0.000
    21 C      -4.943040    -5.230108    -2.039289 C          1 UNL1 0.000
    22 C      -6.012363    -6.126744    -2.210109 C          1 UNL1 0.000
    23 C      -6.357475    -6.642643    -3.469960 C          1 UNL1 0.000
    24 C      -5.685481    -6.221827    -4.610910 C          1 UNL1 0.000
    25 C      -4.678232    -5.275771    -4.492839 C          1 UNL1 0.000
    26 C      -4.314389    -4.793052    -3.228741 C          1 UNL1 0.000
    27 C      -0.432644     0.402750    -0.757950 C          1 UNL1 0.000
    28 C       0.270254     0.425499    -1.980690 C          1 UNL1 0.000
    29 C       1.661917     0.474659    -1.999190 C          1 UNL1 0.000
    30 C       2.367924     0.511641    -0.800350 C          1 UNL1 0.000
    31 C       1.685325     0.488156     0.419543 C          1 UNL1 0.000
    32 C       0.280424     0.428478     0.469249 C          1 UNL1 0.000
    33 H      -4.258471     5.241365    -0.983004 H          1 UNL1 0.000
    34 H      -5.497073     3.228694    -1.738571 H          1 UNL1 0.000
    35 H      -4.404215     1.056964    -1.837176 H          1 UNL1 0.000
    36 H      -0.780925     2.867923    -0.351154 H          1 UNL1 0.000
    37 H      -1.865243     5.031752    -0.355310 H          1 UNL1 0.000
    38 H      -4.536010    -0.173253    -0.159979 H          1 UNL1 0.000
    39 H      -5.652791    -2.319328    -0.341391 H          1 UNL1 0.000
    40 H      -1.879476    -4.250271    -1.018543 H          1 UNL1 0.000
    41 H      -0.773236    -2.086980    -1.095123 H          1 UNL1 0.000
    42 H      -4.336262    -3.583825     1.756624 H          1 UNL1 0.000
    43 H      -4.912560    -4.549484     3.896741 H          1 UNL1 0.000
    44 H      -5.734797    -6.886135     4.051209 H          1 UNL1 0.000
    45 H      -5.842144    -8.276994     1.999642 H          1 UNL1 0.000
    46 H      -5.153490    -7.374680    -0.154749 H          1 UNL1 0.000
    47 H      -6.631696    -6.430491    -1.372819 H          1 UNL1 0.000
    48 H      -7.165154    -7.365474    -3.555527 H          1 UNL1 0.000
    49 H      -5.958482    -6.612409    -5.587445 H          1 UNL1 0.000
    50 H      -4.167073    -4.907594    -5.378807 H          1 UNL1 0.000
    51 H      -3.515485    -4.058285    -3.204817 H          1 UNL1 0.000
    52 H      -0.282513     0.407821    -2.917390 H          1 UNL1 0.000
    53 H       2.192263     0.493337    -2.947799 H          1 UNL1 0.000
    54 H       3.453915     0.565636    -0.812265 H          1 UNL1 0.000
    55 H       2.258769     0.529710     1.344062 H          1 UNL1 0.000
    56 C      -0.388500     0.445140     1.779760 C          1 UNL1 0.000
    57 C      -0.706381    -0.749318     2.441236 C          1 UNL1 0.000
    58 C      -1.352954    -0.730527     3.681996 C          1 UNL1 0.000
    59 C      -1.694639     0.486732     4.278201 C          1 UNL1 0.000
    60 C      -1.368670     1.683959     3.639511 C          1 UNL1 0.000
    61 C      -0.708768     1.659693     2.408386 C          1 UNL1 0.000
    62 C      -2.375101     0.509989     5.540690 C          1 UNL1 0.000
    63 N      -2.923851     0.533295     6.561107 N          1 UNL1 0.000
    64 H      -0.456800    -1.705743     1.985801 H          1 UNL1 0.000
    65 H      -1.591169    -1.672440     4.171682 H          1 UNL1 0.000
    66 H      -1.626571     2.642054     4.086662 H          1 UNL1 0.000
    67 H      -0.455971     2.604948     1.934233 H          1 UNL1 0.000
@<TRIPOS>BOND
     1      1      2   2
     2      2      3   1
     3      3      4   2
     4      4      5   1
     5      5      6   2
     6      6      1   1
     7      4      7   1
     8      7      8   1
     9      8      9   2
    10      9     10   1
    11     10     11   2
    12     11     12   1
    13     12     13   2
    14     13      8   1
    15     25     26   2
    16     24     25   1
    17     23     24   2
    18     22     23   1
    19     21     22   2
    20     21     26   1
    21     19     20   2
    22     18     19   1
    23     17     18   2
    24     16     17   1
    25     15     16   2
    26     15     20   1
    27     14     15   1
    28     14     21   1
    29     11     14   1
    30     27     28   2
    31     28     29   1
    32     29     30   2
    33     30     31   1
    34     31     32   2
    35     32     27   1
    36      7     27   1
    37      1     33   1
    38      2     34   1
    39      3     35   1
    40      5     36   1
    41      6     37   1
    42      9     38   1
    43     10     39   1
    44     12     40   1
    45     13     41   1
    46     16     42   1
    47     17     43   1
    48     18     44   1
    49     19     45   1
    50     20     46   1
    51     22     47   1
    52     23     48   1
    53     24     49   1
    54     25     50   1
    55     26     51   1
    56     28     52   1
    57     29     53   1
    58     30     54   1
    59     31     55   1
    60     56     57   2
    61     57     58   1
    62     58     59   2
    63     59     60   1
    64     60     61   2
    65     61     56   1
    66     62     63   3
    67     59     62   1
    68     57     64   1
    69     58     65   1
    70     60     66   1
    71     61     67   1
    72     32     56   1
