# Produced with molli package
@<TRIPOS>MOLECULE
J_2_Q
64 69 0 0 0
SMALL
USER_CHARGES

@<TRIPOS>ATOM
     1 C      -3.816432     4.246087    -0.614137 C          1 UNL1 0.000
     2 C      -4.466948     3.121839    -0.114303 C          1 UNL1 0.000
     3 C      -3.831609     1.873751    -0.129817 C          1 UNL1 0.000
     4 C      -2.543517     1.714699    -0.670420 C          1 UNL1 0.000
     5 C      -1.900321     2.875541    -1.147008 C          1 UNL1 0.000
     6 C      -2.528050     4.125244    -1.121591 C          1 UNL1 0.000
     7 N      -1.877339     0.428074    -0.705848 N          1 UNL1 0.000
     8 C      -2.572969    -0.833104    -0.840493 C          1 UNL1 0.000
     9 C      -3.820206    -0.939534    -1.478749 C          1 UNL1 0.000
    10 C      -4.511755    -2.158417    -1.531926 C          1 UNL1 0.000
    11 C      -3.972433    -3.311224    -0.947404 C          1 UNL1 0.000
    12 C      -2.702863    -3.233821    -0.368263 C          1 UNL1 0.000
    13 C      -2.008797    -2.022186    -0.340474 C          1 UNL1 0.000
    14 N      -4.699596    -4.551818    -0.938092 N          1 UNL1 0.000
    15 C      -4.945531    -5.201491     0.331125 C          1 UNL1 0.000
    16 C      -5.164007    -4.441417     1.497537 C          1 UNL1 0.000
    17 C      -5.390860    -5.053975     2.733455 C          1 UNL1 0.000
    18 C      -5.405265    -6.441762     2.829587 C          1 UNL1 0.000
    19 C      -5.184094    -7.215621     1.693256 C          1 UNL1 0.000
    20 C      -4.950029    -6.601465     0.457875 C          1 UNL1 0.000
    21 C      -5.110757    -5.130789    -2.194705 C          1 UNL1 0.000
    22 C      -6.302769    -5.865934    -2.311214 C          1 UNL1 0.000
    23 C      -6.684940    -6.433623    -3.530823 C          1 UNL1 0.000
    24 C      -5.888716    -6.265522    -4.660869 C          1 UNL1 0.000
    25 C      -4.712182    -5.527901    -4.574538 C          1 UNL1 0.000
    26 C      -4.328452    -4.966085    -3.354173 C          1 UNL1 0.000
    27 C      -0.435799     0.412575    -0.603482 C          1 UNL1 0.000
    28 C       0.313075     0.204748    -1.779577 C          1 UNL1 0.000
    29 C       1.705435     0.224639    -1.748542 C          1 UNL1 0.000
    30 C       2.366894     0.442952    -0.543795 C          1 UNL1 0.000
    31 C       1.637545     0.631465     0.633379 C          1 UNL1 0.000
    32 C       0.230211     0.612544     0.631133 C          1 UNL1 0.000
    33 H      -4.305915     5.216004    -0.596701 H          1 UNL1 0.000
    34 H      -5.467534     3.214208     0.299417 H          1 UNL1 0.000
    35 H      -4.352250     1.028551     0.311925 H          1 UNL1 0.000
    36 H      -0.894188     2.824875    -1.554258 H          1 UNL1 0.000
    37 H      -2.003310     5.000036    -1.496506 H          1 UNL1 0.000
    38 H      -4.276103    -0.073080    -1.951154 H          1 UNL1 0.000
    39 H      -5.489399    -2.197291    -2.006462 H          1 UNL1 0.000
    40 H      -2.244412    -4.122483     0.058857 H          1 UNL1 0.000
    41 H      -1.020411    -2.028219     0.105954 H          1 UNL1 0.000
    42 H      -5.171894    -3.354655     1.452626 H          1 UNL1 0.000
    43 H      -5.556056    -4.442984     3.617207 H          1 UNL1 0.000
    44 H      -5.583312    -6.918946     3.789699 H          1 UNL1 0.000
    45 H      -5.185530    -8.300006     1.766518 H          1 UNL1 0.000
    46 H      -4.749023    -7.232425    -0.404184 H          1 UNL1 0.000
    47 H      -6.955973    -5.991494    -1.451133 H          1 UNL1 0.000
    48 H      -7.608013    -7.003450    -3.596080 H          1 UNL1 0.000
    49 H      -6.186124    -6.706117    -5.608666 H          1 UNL1 0.000
    50 H      -4.087038    -5.390431    -5.452820 H          1 UNL1 0.000
    51 H      -3.394129    -4.411041    -3.312872 H          1 UNL1 0.000
    52 H      -0.203458     0.052102    -2.724723 H          1 UNL1 0.000
    53 H       2.271162     0.080339    -2.665295 H          1 UNL1 0.000
    54 H       3.453607     0.465328    -0.517112 H          1 UNL1 0.000
    55 H       2.173603     0.793317     1.567336 H          1 UNL1 0.000
    56 C      -0.487717     0.734325     1.902565 C          1 UNL1 0.000
    57 N      -0.729234     1.989619     2.355925 N          1 UNL1 0.000
    58 C      -1.401616     2.070740     3.527939 C          1 UNL1 0.000
    59 C      -1.789645     0.953469     4.249296 C          1 UNL1 0.000
    60 N      -1.522950    -0.302575     3.834661 N          1 UNL1 0.000
    61 C      -0.868936    -0.381665     2.648936 C          1 UNL1 0.000
    62 H      -1.623577     3.072208     3.877204 H          1 UNL1 0.000
    63 H      -2.325428     1.039770     5.187288 H          1 UNL1 0.000
    64 H      -0.644645    -1.389108     2.317557 H          1 UNL1 0.000
@<TRIPOS>BOND
     1      1      2   2
     2      2      3   1
     3      3      4   2
     4      4      5   1
     5      5      6   2
     6      6      1   1
     7      4      7   1
     8      7      8   1
     9      8      9   2
    10      9     10   1
    11     10     11   2
    12     11     12   1
    13     12     13   2
    14     13      8   1
    15     25     26   2
    16     24     25   1
    17     23     24   2
    18     22     23   1
    19     21     22   2
    20     21     26   1
    21     19     20   2
    22     18     19   1
    23     17     18   2
    24     16     17   1
    25     15     16   2
    26     15     20   1
    27     14     15   1
    28     14     21   1
    29     11     14   1
    30     27     28   2
    31     28     29   1
    32     29     30   2
    33     30     31   1
    34     31     32   2
    35     32     27   1
    36      7     27   1
    37      1     33   1
    38      2     34   1
    39      3     35   1
    40      5     36   1
    41      6     37   1
    42      9     38   1
    43     10     39   1
    44     12     40   1
    45     13     41   1
    46     16     42   1
    47     17     43   1
    48     18     44   1
    49     19     45   1
    50     20     46   1
    51     22     47   1
    52     23     48   1
    53     24     49   1
    54     25     50   1
    55     26     51   1
    56     28     52   1
    57     29     53   1
    58     30     54   1
    59     31     55   1
    60     56     57   2
    61     57     58   1
    62     58     59   2
    63     59     60   1
    64     60     61   2
    65     61     56   1
    66     58     62   1
    67     59     63   1
    68     61     64   1
    69     32     56   1
