# Produced with molli package
@<TRIPOS>MOLECULE
J_2_O
65 70 0 0 0
SMALL
USER_CHARGES

@<TRIPOS>ATOM
     1 C      -3.946073     4.146858    -1.424501 C          1 UNL1 0.000
     2 C      -4.490370     2.935477    -1.840397 C          1 UNL1 0.000
     3 C      -3.797915     1.740480    -1.616533 C          1 UNL1 0.000
     4 C      -2.550571     1.728652    -0.965668 C          1 UNL1 0.000
     5 C      -2.019521     2.968735    -0.564690 C          1 UNL1 0.000
     6 C      -2.709306     4.164326    -0.788041 C          1 UNL1 0.000
     7 N      -1.826870     0.499762    -0.736271 N          1 UNL1 0.000
     8 C      -2.488484    -0.777079    -0.658208 C          1 UNL1 0.000
     9 C      -3.643187    -0.948917     0.121749 C          1 UNL1 0.000
    10 C      -4.310358    -2.179945     0.162767 C          1 UNL1 0.000
    11 C      -3.845124    -3.273745    -0.583132 C          1 UNL1 0.000
    12 C      -2.672361    -3.112842    -1.336118 C          1 UNL1 0.000
    13 C      -1.997463    -1.888392    -1.361643 C          1 UNL1 0.000
    14 N      -4.557959    -4.527039    -0.595674 N          1 UNL1 0.000
    15 C      -5.000638    -5.118828     0.644488 C          1 UNL1 0.000
    16 C      -4.223484    -5.018209     1.812696 C          1 UNL1 0.000
    17 C      -4.642189    -5.603588     3.010955 C          1 UNL1 0.000
    18 C      -5.847762    -6.298205     3.064292 C          1 UNL1 0.000
    19 C      -6.637352    -6.404282     1.922461 C          1 UNL1 0.000
    20 C      -6.218652    -5.817805     0.724736 C          1 UNL1 0.000
    21 C      -4.814315    -5.178557    -1.860080 C          1 UNL1 0.000
    22 C      -4.706950    -6.573638    -1.997291 C          1 UNL1 0.000
    23 C      -4.953004    -7.197357    -3.224088 C          1 UNL1 0.000
    24 C      -5.308195    -6.436995    -4.335762 C          1 UNL1 0.000
    25 C      -5.416169    -5.053401    -4.223591 C          1 UNL1 0.000
    26 C      -5.170115    -4.429984    -2.997339 C          1 UNL1 0.000
    27 C      -0.384952     0.525021    -0.681306 C          1 UNL1 0.000
    28 C       0.330405     0.725123    -1.879837 C          1 UNL1 0.000
    29 C       1.723339     0.687812    -1.894983 C          1 UNL1 0.000
    30 C       2.421308     0.464321    -0.712787 C          1 UNL1 0.000
    31 C       1.727034     0.291360     0.487190 C          1 UNL1 0.000
    32 C       0.318540     0.322925     0.531082 C          1 UNL1 0.000
    33 H      -4.483568     5.075278    -1.596082 H          1 UNL1 0.000
    34 H      -5.453149     2.915749    -2.343779 H          1 UNL1 0.000
    35 H      -4.240367     0.816030    -1.977865 H          1 UNL1 0.000
    36 H      -1.066880     3.014630    -0.041500 H          1 UNL1 0.000
    37 H      -2.277343     5.104312    -0.455659 H          1 UNL1 0.000
    38 H      -4.026336    -0.118085     0.710327 H          1 UNL1 0.000
    39 H      -5.215273    -2.269870     0.758675 H          1 UNL1 0.000
    40 H      -2.273377    -3.946578    -1.909134 H          1 UNL1 0.000
    41 H      -1.102645    -1.804107    -1.971904 H          1 UNL1 0.000
    42 H      -3.268621    -4.498330     1.791905 H          1 UNL1 0.000
    43 H      -4.021905    -5.519935     3.899242 H          1 UNL1 0.000
    44 H      -6.172295    -6.755774     3.995118 H          1 UNL1 0.000
    45 H      -7.581670    -6.940958     1.960546 H          1 UNL1 0.000
    46 H      -6.862238    -5.898614    -0.148208 H          1 UNL1 0.000
    47 H      -4.410619    -7.185438    -1.148621 H          1 UNL1 0.000
    48 H      -4.862076    -8.276956    -3.310019 H          1 UNL1 0.000
    49 H      -5.499179    -6.922087    -5.289469 H          1 UNL1 0.000
    50 H      -5.694441    -4.456009    -5.087845 H          1 UNL1 0.000
    51 H      -5.276053    -3.349710    -2.929787 H          1 UNL1 0.000
    52 H      -0.213570     0.890215    -2.806978 H          1 UNL1 0.000
    53 H       2.260396     0.832612    -2.828462 H          1 UNL1 0.000
    54 H       3.508056     0.441241    -0.718466 H          1 UNL1 0.000
    55 H       2.293317     0.156687     1.407138 H          1 UNL1 0.000
    56 C      -0.361720     0.216222     1.828647 C          1 UNL1 0.000
    57 N      -0.966065     1.348701     2.270021 N          1 UNL1 0.000
    58 C      -1.588545     1.301419     3.465734 C          1 UNL1 0.000
    59 C      -1.615934     0.179232     4.274358 C          1 UNL1 0.000
    60 C      -0.972289    -0.967395     3.824860 C          1 UNL1 0.000
    61 C      -0.337236    -0.953268     2.585072 C          1 UNL1 0.000
    62 H      -2.079015     2.222857     3.766114 H          1 UNL1 0.000
    63 H      -2.125805     0.199897     5.230497 H          1 UNL1 0.000
    64 H      -0.966515    -1.866882     4.433061 H          1 UNL1 0.000
    65 H       0.164051    -1.841176     2.214293 H          1 UNL1 0.000
@<TRIPOS>BOND
     1      1      2   2
     2      2      3   1
     3      3      4   2
     4      4      5   1
     5      5      6   2
     6      6      1   1
     7      4      7   1
     8      7      8   1
     9      8      9   2
    10      9     10   1
    11     10     11   2
    12     11     12   1
    13     12     13   2
    14     13      8   1
    15     25     26   2
    16     24     25   1
    17     23     24   2
    18     22     23   1
    19     21     22   2
    20     21     26   1
    21     19     20   2
    22     18     19   1
    23     17     18   2
    24     16     17   1
    25     15     16   2
    26     15     20   1
    27     14     15   1
    28     14     21   1
    29     11     14   1
    30     27     28   2
    31     28     29   1
    32     29     30   2
    33     30     31   1
    34     31     32   2
    35     32     27   1
    36      7     27   1
    37      1     33   1
    38      2     34   1
    39      3     35   1
    40      5     36   1
    41      6     37   1
    42      9     38   1
    43     10     39   1
    44     12     40   1
    45     13     41   1
    46     16     42   1
    47     17     43   1
    48     18     44   1
    49     19     45   1
    50     20     46   1
    51     22     47   1
    52     23     48   1
    53     24     49   1
    54     25     50   1
    55     26     51   1
    56     28     52   1
    57     29     53   1
    58     30     54   1
    59     31     55   1
    60     56     57   2
    61     57     58   1
    62     58     59   2
    63     59     60   1
    64     60     61   2
    65     61     56   1
    66     58     62   1
    67     59     63   1
    68     60     64   1
    69     61     65   1
    70     32     56   1
