# Produced with molli package
@<TRIPOS>MOLECULE
J_2_P
70 75 0 0 0
SMALL
USER_CHARGES

@<TRIPOS>ATOM
     1 C      -3.973680     4.266951    -1.114019 C          1 UNL1 0.000
     2 C      -4.595214     3.086506    -1.506921 C          1 UNL1 0.000
     3 C      -3.923486     1.862495    -1.393808 C          1 UNL1 0.000
     4 C      -2.624920     1.782960    -0.860006 C          1 UNL1 0.000
     5 C      -2.009289     3.001982    -0.507975 C          1 UNL1 0.000
     6 C      -2.674043     4.226848    -0.624678 C          1 UNL1 0.000
     7 N      -1.927198     0.523002    -0.700856 N          1 UNL1 0.000
     8 C      -2.589601    -0.762288    -0.679993 C          1 UNL1 0.000
     9 C      -3.822842    -0.949431    -0.034605 C          1 UNL1 0.000
    10 C      -4.474382    -2.189841    -0.057904 C          1 UNL1 0.000
    11 C      -3.901602    -3.289243    -0.713472 C          1 UNL1 0.000
    12 C      -2.648070    -3.127324    -1.315229 C          1 UNL1 0.000
    13 C      -2.001705    -1.887113    -1.290486 C          1 UNL1 0.000
    14 N      -4.581917    -4.559771    -0.765546 N          1 UNL1 0.000
    15 C      -5.001476    -5.169862     0.477850 C          1 UNL1 0.000
    16 C      -4.255330    -4.977593     1.658648 C          1 UNL1 0.000
    17 C      -4.651058    -5.546201     2.872370 C          1 UNL1 0.000
    18 C      -5.798671    -6.329207     2.931129 C          1 UNL1 0.000
    19 C      -6.556364    -6.532302     1.780505 C          1 UNL1 0.000
    20 C      -6.167514    -5.948915     0.569217 C          1 UNL1 0.000
    21 C      -4.821167    -5.172141    -2.057265 C          1 UNL1 0.000
    22 C      -4.872553    -6.567211    -2.224149 C          1 UNL1 0.000
    23 C      -5.117744    -7.141825    -3.477512 C          1 UNL1 0.000
    24 C      -5.291265    -6.333220    -4.597577 C          1 UNL1 0.000
    25 C      -5.221594    -4.950987    -4.465914 C          1 UNL1 0.000
    26 C      -4.994531    -4.378462    -3.210274 C          1 UNL1 0.000
    27 C      -0.484450     0.532132    -0.635459 C          1 UNL1 0.000
    28 C       0.241548     0.717882    -1.830185 C          1 UNL1 0.000
    29 C       1.634682     0.698871    -1.828750 C          1 UNL1 0.000
    30 C       2.321269     0.510547    -0.633852 C          1 UNL1 0.000
    31 C       1.615526     0.343902     0.559971 C          1 UNL1 0.000
    32 C       0.207647     0.350792     0.586053 C          1 UNL1 0.000
    33 H      -4.495793     5.215946    -1.198740 H          1 UNL1 0.000
    34 H      -5.605433     3.112542    -1.907477 H          1 UNL1 0.000
    35 H      -4.434854     0.972372    -1.748578 H          1 UNL1 0.000
    36 H      -0.994029     3.019012    -0.121721 H          1 UNL1 0.000
    37 H      -2.171900     5.144184    -0.329648 H          1 UNL1 0.000
    38 H      -4.288478    -0.129520     0.506690 H          1 UNL1 0.000
    39 H      -5.442563    -2.290711     0.427055 H          1 UNL1 0.000
    40 H      -2.164938    -3.971197    -1.801805 H          1 UNL1 0.000
    41 H      -1.035175    -1.811690    -1.780838 H          1 UNL1 0.000
    42 H      -3.343998    -4.384134     1.643170 H          1 UNL1 0.000
    43 H      -4.058920    -5.374172     3.767489 H          1 UNL1 0.000
    44 H      -6.105302    -6.775174     3.873501 H          1 UNL1 0.000
    45 H      -7.457389    -7.138245     1.824385 H          1 UNL1 0.000
    46 H      -6.800839    -6.097245    -0.301804 H          1 UNL1 0.000
    47 H      -4.707036    -7.230469    -1.378865 H          1 UNL1 0.000
    48 H      -5.166422    -8.223007    -3.576982 H          1 UNL1 0.000
    49 H      -5.476134    -6.779436    -5.571215 H          1 UNL1 0.000
    50 H      -5.347478    -4.311985    -5.336276 H          1 UNL1 0.000
    51 H      -4.967112    -3.293606    -3.141262 H          1 UNL1 0.000
    52 H      -0.294413     0.856896    -2.766407 H          1 UNL1 0.000
    53 H       2.181108     0.827543    -2.759171 H          1 UNL1 0.000
    54 H       3.408231     0.498601    -0.626094 H          1 UNL1 0.000
    55 H       2.171279     0.215751     1.487579 H          1 UNL1 0.000
    56 C      -0.469832     0.222717     1.885426 C          1 UNL1 0.000
    57 C      -0.684116    -1.034474     2.466523 C          1 UNL1 0.000
    58 C      -1.249576    -1.143595     3.740436 C          1 UNL1 0.000
    59 C      -1.588878     0.001203     4.459769 C          1 UNL1 0.000
    60 C      -1.428578     1.256169     3.877547 C          1 UNL1 0.000
    61 C      -0.863004     1.363594     2.603689 C          1 UNL1 0.000
    62 O      -2.092754    -0.202031     5.715652 O          1 UNL1 0.000
    63 C      -1.632978     0.743608     6.679155 C          1 UNL1 0.000
    64 H      -0.401807    -1.937643     1.930446 H          1 UNL1 0.000
    65 H      -1.400689    -2.124041     4.182952 H          1 UNL1 0.000
    66 H      -1.736729     2.160752     4.391427 H          1 UNL1 0.000
    67 H      -0.719839     2.352843     2.176887 H          1 UNL1 0.000
    68 H      -2.213176     1.669674     6.620553 H          1 UNL1 0.000
    69 H      -0.561264     0.948933     6.571028 H          1 UNL1 0.000
    70 H      -1.788089     0.311125     7.672220 H          1 UNL1 0.000
@<TRIPOS>BOND
     1      1      2   2
     2      2      3   1
     3      3      4   2
     4      4      5   1
     5      5      6   2
     6      6      1   1
     7      4      7   1
     8      7      8   1
     9      8      9   2
    10      9     10   1
    11     10     11   2
    12     11     12   1
    13     12     13   2
    14     13      8   1
    15     25     26   2
    16     24     25   1
    17     23     24   2
    18     22     23   1
    19     21     22   2
    20     21     26   1
    21     19     20   2
    22     18     19   1
    23     17     18   2
    24     16     17   1
    25     15     16   2
    26     15     20   1
    27     14     15   1
    28     14     21   1
    29     11     14   1
    30     27     28   2
    31     28     29   1
    32     29     30   2
    33     30     31   1
    34     31     32   2
    35     32     27   1
    36      7     27   1
    37      1     33   1
    38      2     34   1
    39      3     35   1
    40      5     36   1
    41      6     37   1
    42      9     38   1
    43     10     39   1
    44     12     40   1
    45     13     41   1
    46     16     42   1
    47     17     43   1
    48     18     44   1
    49     19     45   1
    50     20     46   1
    51     22     47   1
    52     23     48   1
    53     24     49   1
    54     25     50   1
    55     26     51   1
    56     28     52   1
    57     29     53   1
    58     30     54   1
    59     31     55   1
    60     56     57   2
    61     57     58   1
    62     58     59   2
    63     59     60   1
    64     60     61   2
    65     61     56   1
    66     62     63   1
    67     59     62   1
    68     57     64   1
    69     58     65   1
    70     60     66   1
    71     61     67   1
    72     63     68   1
    73     63     69   1
    74     63     70   1
    75     32     56   1
