# Produced with molli package
@<TRIPOS>MOLECULE
J_2_L
70 76 0 0 0
SMALL
USER_CHARGES

@<TRIPOS>ATOM
     1 C      -3.939132     4.194038    -1.182135 C          1 UNL1 0.000
     2 C      -4.598448     3.002262    -1.462219 C          1 UNL1 0.000
     3 C      -3.922681     1.777908    -1.362429 C          1 UNL1 0.000
     4 C      -2.582182     1.706513    -0.945544 C          1 UNL1 0.000
     5 C      -1.929229     2.939220    -0.729010 C          1 UNL1 0.000
     6 C      -2.596849     4.164264    -0.830995 C          1 UNL1 0.000
     7 N      -1.879981     0.447466    -0.769419 N          1 UNL1 0.000
     8 C      -2.534028    -0.842106    -0.684901 C          1 UNL1 0.000
     9 C      -3.758078    -1.017509    -0.019008 C          1 UNL1 0.000
    10 C      -4.416473    -2.256499    -0.013929 C          1 UNL1 0.000
    11 C      -3.856088    -3.370555    -0.654831 C          1 UNL1 0.000
    12 C      -2.598348    -3.228223    -1.251052 C          1 UNL1 0.000
    13 C      -1.947986    -1.988345    -1.257615 C          1 UNL1 0.000
    14 N      -4.558073    -4.629485    -0.707443 N          1 UNL1 0.000
    15 C      -5.007944    -5.220066     0.533659 C          1 UNL1 0.000
    16 C      -4.239081    -5.091898     1.707141 C          1 UNL1 0.000
    17 C      -4.656004    -5.658186     2.914919 C          1 UNL1 0.000
    18 C      -5.850813    -6.368646     2.974242 C          1 UNL1 0.000
    19 C      -6.634295    -6.500823     1.830808 C          1 UNL1 0.000
    20 C      -6.222017    -5.922675     0.625435 C          1 UNL1 0.000
    21 C      -4.808877    -5.245841    -1.996410 C          1 UNL1 0.000
    22 C      -4.944947    -6.638610    -2.142900 C          1 UNL1 0.000
    23 C      -5.215358    -7.218333    -3.388741 C          1 UNL1 0.000
    24 C      -5.326140    -6.420282    -4.523388 C          1 UNL1 0.000
    25 C      -5.167309    -5.043276    -4.413691 C          1 UNL1 0.000
    26 C      -4.917868    -4.464174    -3.164853 C          1 UNL1 0.000
    27 C      -0.434793     0.464841    -0.713939 C          1 UNL1 0.000
    28 C       0.282526     0.510537    -1.926983 C          1 UNL1 0.000
    29 C       1.675205     0.510340    -1.930284 C          1 UNL1 0.000
    30 C       2.368569     0.481695    -0.723975 C          1 UNL1 0.000
    31 C       1.671168     0.457719     0.487322 C          1 UNL1 0.000
    32 C       0.264630     0.450624     0.519578 C          1 UNL1 0.000
    33 H      -4.464903     5.142203    -1.249967 H          1 UNL1 0.000
    34 H      -5.643314     3.018900    -1.760839 H          1 UNL1 0.000
    35 H      -4.473035     0.881695    -1.631419 H          1 UNL1 0.000
    36 H      -0.878257     2.971819    -0.456918 H          1 UNL1 0.000
    37 H      -2.062046     5.088419    -0.628777 H          1 UNL1 0.000
    38 H      -4.217759    -0.186619     0.510932 H          1 UNL1 0.000
    39 H      -5.385626    -2.340217     0.472154 H          1 UNL1 0.000
    40 H      -2.118011    -4.084547    -1.718496 H          1 UNL1 0.000
    41 H      -0.981635    -1.932729    -1.749978 H          1 UNL1 0.000
    42 H      -3.291660    -4.558082     1.685893 H          1 UNL1 0.000
    43 H      -4.042331    -5.545568     3.804584 H          1 UNL1 0.000
    44 H      -6.172951    -6.815081     3.911225 H          1 UNL1 0.000
    45 H      -7.571337    -7.049769     1.874623 H          1 UNL1 0.000
    46 H      -6.870111    -6.016244    -0.242439 H          1 UNL1 0.000
    47 H      -4.831679    -7.297948    -1.286194 H          1 UNL1 0.000
    48 H      -5.334414    -8.295762    -3.469830 H          1 UNL1 0.000
    49 H      -5.531888    -6.870157    -5.491115 H          1 UNL1 0.000
    50 H      -5.242761    -4.413006    -5.296040 H          1 UNL1 0.000
    51 H      -4.823819    -3.381903    -3.116022 H          1 UNL1 0.000
    52 H      -0.260312     0.532278    -2.869239 H          1 UNL1 0.000
    53 H       2.216038     0.533064    -2.872590 H          1 UNL1 0.000
    54 H       3.455668     0.487897    -0.722421 H          1 UNL1 0.000
    55 H       2.232338     0.458426     1.420205 H          1 UNL1 0.000
    56 C      -0.421128     0.491603     1.822025 C          1 UNL1 0.000
    57 C      -0.680014    -0.683354     2.539089 C          1 UNL1 0.000
    58 C      -1.338976    -0.664028     3.776793 C          1 UNL1 0.000
    59 C      -1.747820     0.578477     4.274707 C          1 UNL1 0.000
    60 C      -1.505472     1.771916     3.600229 C          1 UNL1 0.000
    61 C      -0.816982     1.725580     2.373598 C          1 UNL1 0.000
    62 N      -2.423605     0.899795     5.431391 N          1 UNL1 0.000
    63 C      -2.627670     2.254108     5.499339 C          1 UNL1 0.000
    64 C      -2.065562     2.821050     4.379890 C          1 UNL1 0.000
    65 H      -0.373126    -1.642175     2.124748 H          1 UNL1 0.000
    66 H      -1.533561    -1.584888     4.315130 H          1 UNL1 0.000
    67 H      -0.610477     2.653586     1.851092 H          1 UNL1 0.000
    68 H      -2.731553     0.229367     6.119151 H          1 UNL1 0.000
    69 H      -3.156364     2.694633     6.334305 H          1 UNL1 0.000
    70 H      -2.064335     3.875725     4.136412 H          1 UNL1 0.000
@<TRIPOS>BOND
     1      1      2   2
     2      2      3   1
     3      3      4   2
     4      4      5   1
     5      5      6   2
     6      6      1   1
     7      4      7   1
     8      7      8   1
     9      8      9   2
    10      9     10   1
    11     10     11   2
    12     11     12   1
    13     12     13   2
    14     13      8   1
    15     25     26   2
    16     24     25   1
    17     23     24   2
    18     22     23   1
    19     21     22   2
    20     21     26   1
    21     19     20   2
    22     18     19   1
    23     17     18   2
    24     16     17   1
    25     15     16   2
    26     15     20   1
    27     14     15   1
    28     14     21   1
    29     11     14   1
    30     27     28   2
    31     28     29   1
    32     29     30   2
    33     30     31   1
    34     31     32   2
    35     32     27   1
    36      7     27   1
    37      1     33   1
    38      2     34   1
    39      3     35   1
    40      5     36   1
    41      6     37   1
    42      9     38   1
    43     10     39   1
    44     12     40   1
    45     13     41   1
    46     16     42   1
    47     17     43   1
    48     18     44   1
    49     19     45   1
    50     20     46   1
    51     22     47   1
    52     23     48   1
    53     24     49   1
    54     25     50   1
    55     26     51   1
    56     28     52   1
    57     29     53   1
    58     30     54   1
    59     31     55   1
    60     56     57   2
    61     57     58   1
    62     58     59   2
    63     59     60   1
    64     60     61   2
    65     61     56   1
    66     59     62   1
    67     62     63   1
    68     63     64   2
    69     64     60   1
    70     57     65   1
    71     58     66   1
    72     61     67   1
    73     62     68   1
    74     63     69   1
    75     64     70   1
    76     32     56   1
