# Produced with molli package
@<TRIPOS>MOLECULE
J_2_N
63 68 0 0 0
SMALL
USER_CHARGES

@<TRIPOS>ATOM
     1 C      -3.734653     4.203204    -0.290745 C          1 UNL1 0.000
     2 C      -4.241340     3.095846     0.383877 C          1 UNL1 0.000
     3 C      -3.624260     1.847111     0.249960 C          1 UNL1 0.000
     4 C      -2.510193     1.671117    -0.587619 C          1 UNL1 0.000
     5 C      -2.000693     2.813818    -1.236305 C          1 UNL1 0.000
     6 C      -2.606020     4.065551    -1.091618 C          1 UNL1 0.000
     7 N      -1.864258     0.386898    -0.753377 N          1 UNL1 0.000
     8 C      -2.576272    -0.872908    -0.843909 C          1 UNL1 0.000
     9 C      -3.962127    -0.939348    -1.072639 C          1 UNL1 0.000
    10 C      -4.652224    -2.158645    -1.057673 C          1 UNL1 0.000
    11 C      -3.962432    -3.363990    -0.898221 C          1 UNL1 0.000
    12 C      -2.572729    -3.329330    -0.767237 C          1 UNL1 0.000
    13 C      -1.897461    -2.104124    -0.720178 C          1 UNL1 0.000
    14 N      -4.669230    -4.612803    -0.861885 N          1 UNL1 0.000
    15 C      -5.142376    -5.090503     0.420975 C          1 UNL1 0.000
    16 C      -4.431880    -4.830356     1.608988 C          1 UNL1 0.000
    17 C      -4.876879    -5.303511     2.847991 C          1 UNL1 0.000
    18 C      -6.054491    -6.038636     2.930395 C          1 UNL1 0.000
    19 C      -6.794134    -6.283699     1.778150 C          1 UNL1 0.000
    20 C      -6.348903    -5.805260     0.540235 C          1 UNL1 0.000
    21 C      -4.894549    -5.323951    -2.102488 C          1 UNL1 0.000
    22 C      -5.034113    -6.724615    -2.133943 C          1 UNL1 0.000
    23 C      -5.278169    -7.408782    -3.330449 C          1 UNL1 0.000
    24 C      -5.362823    -6.710988    -4.530072 C          1 UNL1 0.000
    25 C      -5.188896    -5.331305    -4.535944 C          1 UNL1 0.000
    26 C      -4.951021    -4.649581    -3.337550 C          1 UNL1 0.000
    27 C      -0.419827     0.380846    -0.741408 C          1 UNL1 0.000
    28 C       0.271051     0.221656    -1.957799 C          1 UNL1 0.000
    29 C       1.665627     0.240406    -1.990913 C          1 UNL1 0.000
    30 C       2.388410     0.410516    -0.811625 C          1 UNL1 0.000
    31 C       1.720354     0.552976     0.406136 C          1 UNL1 0.000
    32 C       0.318796     0.533805     0.454802 C          1 UNL1 0.000
    33 H      -4.212372     5.173520    -0.184728 H          1 UNL1 0.000
    34 H      -5.113268     3.201557     1.023947 H          1 UNL1 0.000
    35 H      -4.011457     1.013470     0.830587 H          1 UNL1 0.000
    36 H      -1.127912     2.738565    -1.879338 H          1 UNL1 0.000
    37 H      -2.194593     4.928161    -1.609143 H          1 UNL1 0.000
    38 H      -4.542202    -0.041531    -1.263731 H          1 UNL1 0.000
    39 H      -5.731442    -2.167639    -1.188596 H          1 UNL1 0.000
    40 H      -2.015489    -4.256605    -0.661153 H          1 UNL1 0.000
    41 H      -0.822390    -2.138119    -0.566257 H          1 UNL1 0.000
    42 H      -3.503066    -4.267621     1.592148 H          1 UNL1 0.000
    43 H      -4.298558    -5.096075     3.744491 H          1 UNL1 0.000
    44 H      -6.398360    -6.410062     3.891950 H          1 UNL1 0.000
    45 H      -7.724213    -6.843116     1.838728 H          1 UNL1 0.000
    46 H      -6.969604    -5.984611    -0.333694 H          1 UNL1 0.000
    47 H      -4.938155    -7.308661    -1.222466 H          1 UNL1 0.000
    48 H      -5.396098    -8.489418    -3.320387 H          1 UNL1 0.000
    49 H      -5.553668    -7.240278    -5.459592 H          1 UNL1 0.000
    50 H      -5.239895    -4.778625    -5.470144 H          1 UNL1 0.000
    51 H      -4.827863    -3.571570    -3.391365 H          1 UNL1 0.000
    52 H      -0.289468     0.095685    -2.881192 H          1 UNL1 0.000
    53 H       2.187167     0.125042    -2.937669 H          1 UNL1 0.000
    54 H       3.475279     0.425200    -0.837449 H          1 UNL1 0.000
    55 H       2.297727     0.667955     1.321138 H          1 UNL1 0.000
    56 C      -0.327823     0.624494     1.756773 C          1 UNL1 0.000
    57 C      -0.701472    -0.510881     2.448805 C          1 UNL1 0.000
    58 S      -1.444860    -0.144675     3.946015 S          1 UNL1 0.000
    59 C      -1.258723     1.535977     3.688163 C          1 UNL1 0.000
    60 C      -0.643779     1.811336     2.486184 C          1 UNL1 0.000
    61 H      -0.585148    -1.542986     2.148009 H          1 UNL1 0.000
    62 H      -1.612908     2.240576     4.427430 H          1 UNL1 0.000
    63 H      -0.447860     2.817167     2.135544 H          1 UNL1 0.000
@<TRIPOS>BOND
     1      1      2   2
     2      2      3   1
     3      3      4   2
     4      4      5   1
     5      5      6   2
     6      6      1   1
     7      4      7   1
     8      7      8   1
     9      8      9   2
    10      9     10   1
    11     10     11   2
    12     11     12   1
    13     12     13   2
    14     13      8   1
    15     25     26   2
    16     24     25   1
    17     23     24   2
    18     22     23   1
    19     21     22   2
    20     21     26   1
    21     19     20   2
    22     18     19   1
    23     17     18   2
    24     16     17   1
    25     15     16   2
    26     15     20   1
    27     14     15   1
    28     14     21   1
    29     11     14   1
    30     27     28   2
    31     28     29   1
    32     29     30   2
    33     30     31   1
    34     31     32   2
    35     32     27   1
    36      7     27   1
    37      1     33   1
    38      2     34   1
    39      3     35   1
    40      5     36   1
    41      6     37   1
    42      9     38   1
    43     10     39   1
    44     12     40   1
    45     13     41   1
    46     16     42   1
    47     17     43   1
    48     18     44   1
    49     19     45   1
    50     20     46   1
    51     22     47   1
    52     23     48   1
    53     24     49   1
    54     25     50   1
    55     26     51   1
    56     28     52   1
    57     29     53   1
    58     30     54   1
    59     31     55   1
    60     56     57   2
    61     57     58   1
    62     58     59   1
    63     59     60   2
    64     60     56   1
    65     57     61   1
    66     59     62   1
    67     60     63   1
    68     32     56   1
