# Produced with molli package
@<TRIPOS>MOLECULE
J_2_R
67 72 0 0 0
SMALL
USER_CHARGES

@<TRIPOS>ATOM
     1 C      -3.721713     4.330562    -0.646371 C          1 UNL1 0.000
     2 C      -4.383980     3.242588    -0.088225 C          1 UNL1 0.000
     3 C      -3.782652     1.976713    -0.082050 C          1 UNL1 0.000
     4 C      -2.530815     1.750492    -0.680113 C          1 UNL1 0.000
     5 C      -1.872295     2.883120    -1.207127 C          1 UNL1 0.000
     6 C      -2.455734     4.154827    -1.189499 C          1 UNL1 0.000
     7 N      -1.894704     0.442686    -0.706524 N          1 UNL1 0.000
     8 C      -2.598001    -0.826835    -0.779183 C          1 UNL1 0.000
     9 C      -3.965544    -0.927949    -1.085154 C          1 UNL1 0.000
    10 C      -4.642638    -2.155188    -1.052067 C          1 UNL1 0.000
    11 C      -3.948246    -3.347148    -0.825028 C          1 UNL1 0.000
    12 C      -2.567814    -3.285158    -0.625823 C          1 UNL1 0.000
    13 C      -1.914699    -2.047047    -0.574902 C          1 UNL1 0.000
    14 N      -4.637989    -4.610416    -0.814946 N          1 UNL1 0.000
    15 C      -5.050128    -5.143555     0.475039 C          1 UNL1 0.000
    16 C      -4.364048    -4.807160     1.662535 C          1 UNL1 0.000
    17 C      -4.734710    -5.326086     2.909167 C          1 UNL1 0.000
    18 C      -5.812315    -6.195472     3.007319 C          1 UNL1 0.000
    19 C      -6.537559    -6.514623     1.865023 C          1 UNL1 0.000
    20 C      -6.174582    -5.975949     0.622200 C          1 UNL1 0.000
    21 C      -4.920280    -5.247083    -2.092391 C          1 UNL1 0.000
    22 C      -5.160608    -6.628064    -2.210388 C          1 UNL1 0.000
    23 C      -5.489601    -7.218439    -3.439111 C          1 UNL1 0.000
    24 C      -5.536710    -6.450408    -4.596859 C          1 UNL1 0.000
    25 C      -5.232741    -5.098151    -4.529409 C          1 UNL1 0.000
    26 C      -4.923257    -4.510561    -3.297249 C          1 UNL1 0.000
    27 C      -0.445642     0.421495    -0.659242 C          1 UNL1 0.000
    28 C       0.252692     0.311163    -1.882140 C          1 UNL1 0.000
    29 C       1.644633     0.302926    -1.911798 C          1 UNL1 0.000
    30 C       2.358967     0.393457    -0.722719 C          1 UNL1 0.000
    31 C       1.682049     0.476848     0.497566 C          1 UNL1 0.000
    32 C       0.272525     0.483651     0.563921 C          1 UNL1 0.000
    33 H      -4.180394     5.315288    -0.639294 H          1 UNL1 0.000
    34 H      -5.363997     3.377338     0.361562 H          1 UNL1 0.000
    35 H      -4.299779     1.176656     0.438744 H          1 UNL1 0.000
    36 H      -0.881151     2.798538    -1.642615 H          1 UNL1 0.000
    37 H      -1.912358     5.002751    -1.597738 H          1 UNL1 0.000
    38 H      -4.546420    -0.056991    -1.369700 H          1 UNL1 0.000
    39 H      -5.713196    -2.182807    -1.241588 H          1 UNL1 0.000
    40 H      -2.000689    -4.200572    -0.476708 H          1 UNL1 0.000
    41 H      -0.847887    -2.065560    -0.371280 H          1 UNL1 0.000
    42 H      -3.512576    -4.134823     1.648704 H          1 UNL1 0.000
    43 H      -4.175788    -5.046550     3.798571 H          1 UNL1 0.000
    44 H      -6.095446    -6.608154     3.971844 H          1 UNL1 0.000
    45 H      -7.396561    -7.176781     1.937233 H          1 UNL1 0.000
    46 H      -6.809072    -6.208304    -0.228353 H          1 UNL1 0.000
    47 H      -5.082314    -7.282470    -1.346980 H          1 UNL1 0.000
    48 H      -5.702351    -8.283232    -3.487487 H          1 UNL1 0.000
    49 H      -5.792030    -6.905618    -5.549719 H          1 UNL1 0.000
    50 H      -5.236871    -4.489742    -5.430239 H          1 UNL1 0.000
    51 H      -4.692915    -3.449975    -3.310966 H          1 UNL1 0.000
    52 H      -0.306997     0.247875    -2.812977 H          1 UNL1 0.000
    53 H       2.167968     0.233937    -2.861782 H          1 UNL1 0.000
    54 H       3.446131     0.396978    -0.740932 H          1 UNL1 0.000
    55 H       2.268993     0.543782     1.412301 H          1 UNL1 0.000
    56 C      -0.384438     0.491570     1.883615 C          1 UNL1 0.000
    57 N      -1.253282     1.503390     2.129513 N          1 UNL1 0.000
    58 C      -1.909993     1.514639     3.313478 C          1 UNL1 0.000
    59 C      -1.686696     0.571342     4.297398 C          1 UNL1 0.000
    60 C      -0.762149    -0.445734     4.076496 C          1 UNL1 0.000
    61 C      -0.110301    -0.489371     2.843779 C          1 UNL1 0.000
    62 N      -2.412136     0.657460     5.545410 N          1 UNL1 0.000
    63 O      -1.809855     0.322892     6.575674 O          1 UNL1 0.000
    64 O      -3.583504     1.053798     5.500255 O          1 UNL1 0.000
    65 H      -2.622126     2.327008     3.430656 H          1 UNL1 0.000
    66 H      -0.556458    -1.200014     4.831387 H          1 UNL1 0.000
    67 H       0.596181    -1.287040     2.632458 H          1 UNL1 0.000
@<TRIPOS>BOND
     1      1      2   2
     2      2      3   1
     3      3      4   2
     4      4      5   1
     5      5      6   2
     6      6      1   1
     7      4      7   1
     8      7      8   1
     9      8      9   2
    10      9     10   1
    11     10     11   2
    12     11     12   1
    13     12     13   2
    14     13      8   1
    15     25     26   2
    16     24     25   1
    17     23     24   2
    18     22     23   1
    19     21     22   2
    20     21     26   1
    21     19     20   2
    22     18     19   1
    23     17     18   2
    24     16     17   1
    25     15     16   2
    26     15     20   1
    27     14     15   1
    28     14     21   1
    29     11     14   1
    30     27     28   2
    31     28     29   1
    32     29     30   2
    33     30     31   1
    34     31     32   2
    35     32     27   1
    36      7     27   1
    37      1     33   1
    38      2     34   1
    39      3     35   1
    40      5     36   1
    41      6     37   1
    42      9     38   1
    43     10     39   1
    44     12     40   1
    45     13     41   1
    46     16     42   1
    47     17     43   1
    48     18     44   1
    49     19     45   1
    50     20     46   1
    51     22     47   1
    52     23     48   1
    53     24     49   1
    54     25     50   1
    55     26     51   1
    56     28     52   1
    57     29     53   1
    58     30     54   1
    59     31     55   1
    60     56     57   2
    61     57     58   1
    62     58     59   2
    63     59     60   1
    64     60     61   2
    65     61     56   1
    66     62     63   2
    67     62     64   1
    68     59     62   1
    69     58     65   1
    70     60     66   1
    71     61     67   1
    72     32     56   1
