# Produced with molli package
@<TRIPOS>MOLECULE
J_3_T
81 88 0 0 0
SMALL
USER_CHARGES

@<TRIPOS>ATOM
     1 C      -5.873373     4.227373     0.835898 C          1 UNL1 0.000
     2 C      -6.475098     3.104801     1.394565 C          1 UNL1 0.000
     3 C      -5.856423     1.852658     1.298433 C          1 UNL1 0.000
     4 C      -4.644909     1.682698     0.605303 C          1 UNL1 0.000
     5 C      -4.044002     2.844683     0.079247 C          1 UNL1 0.000
     6 C      -4.649357     4.100256     0.190705 C          1 UNL1 0.000
     7 N      -3.999488     0.388513     0.473275 N          1 UNL1 0.000
     8 C      -4.706285    -0.879509     0.427696 C          1 UNL1 0.000
     9 C      -6.068596    -0.966479     0.086985 C          1 UNL1 0.000
    10 C      -6.762540    -2.181376     0.134693 C          1 UNL1 0.000
    11 C      -6.087623    -3.370192     0.435073 C          1 UNL1 0.000
    12 C      -4.710469    -3.322601     0.676224 C          1 UNL1 0.000
    13 C      -4.039667    -2.094705     0.693424 C          1 UNL1 0.000
    14 N      -6.798313    -4.630032     0.462792 N          1 UNL1 0.000
    15 C      -7.190917    -5.117586     1.786199 C          1 UNL1 0.000
    16 C      -6.617701    -4.558016     2.958735 C          1 UNL1 0.000
    17 C      -6.910163    -5.016597     4.250274 C          1 UNL1 0.000
    18 C      -7.796967    -6.064272     4.424386 C          1 UNL1 0.000
    19 C      -8.431982    -6.598246     3.310840 C          1 UNL1 0.000
    20 C      -8.162202    -6.101485     2.021231 C          1 UNL1 0.000
    21 C      -7.045468    -5.256608    -0.837468 C          1 UNL1 0.000
    22 C      -7.566987    -6.544370    -1.025087 C          1 UNL1 0.000
    23 C      -7.873461    -7.051192    -2.302422 C          1 UNL1 0.000
    24 C      -7.587574    -6.316900    -3.445808 C          1 UNL1 0.000
    25 C      -6.972652    -5.084948    -3.313316 C          1 UNL1 0.000
    26 C      -6.710238    -4.572046    -2.036702 C          1 UNL1 0.000
    27 C      -2.512741     0.263894    -2.020840 C          1 UNL1 0.000
    28 C      -1.832711     0.259730    -3.236641 C          1 UNL1 0.000
    29 C      -0.451012     0.306399    -3.240278 C          1 UNL1 0.000
    30 C       0.237428     0.351092    -2.028135 C          1 UNL1 0.000
    31 C      -0.424721     0.360225    -0.772339 C          1 UNL1 0.000
    32 C      -1.839278     0.321510    -0.774087 C          1 UNL1 0.000
    33 C       0.277779     0.420378     0.473394 C          1 UNL1 0.000
    34 C      -0.426438     0.453081     1.719025 C          1 UNL1 0.000
    35 C      -1.840802     0.434757     1.719813 C          1 UNL1 0.000
    36 C      -2.534615     0.373033     0.471839 C          1 UNL1 0.000
    37 C       0.234660     0.504824     2.975025 C          1 UNL1 0.000
    38 C      -0.454251     0.535941     4.187183 C          1 UNL1 0.000
    39 C      -1.835949     0.513503     4.183788 C          1 UNL1 0.000
    40 C      -2.514169     0.462455     2.968114 C          1 UNL1 0.000
    41 H      -6.349494     5.200793     0.914680 H          1 UNL1 0.000
    42 H      -7.423687     3.200582     1.916358 H          1 UNL1 0.000
    43 H      -6.333002     1.013863     1.798169 H          1 UNL1 0.000
    44 H      -3.091746     2.793779    -0.441484 H          1 UNL1 0.000
    45 H      -4.158999     4.973973    -0.230533 H          1 UNL1 0.000
    46 H      -6.622534    -0.088609    -0.232625 H          1 UNL1 0.000
    47 H      -7.824755    -2.207504    -0.096313 H          1 UNL1 0.000
    48 H      -4.165278    -4.239777     0.885788 H          1 UNL1 0.000
    49 H      -2.979901    -2.114111     0.933596 H          1 UNL1 0.000
    50 H      -5.916416    -3.730719     2.907177 H          1 UNL1 0.000
    51 H      -6.435826    -4.548223     5.108995 H          1 UNL1 0.000
    52 H      -8.012566    -6.440705     5.420309 H          1 UNL1 0.000
    53 H      -9.158673    -7.396740     3.440299 H          1 UNL1 0.000
    54 H      -8.786085    -6.491158     1.228860 H          1 UNL1 0.000
    55 H      -7.723415    -7.229045    -0.204216 H          1 UNL1 0.000
    56 H      -8.324200    -8.036218    -2.397111 H          1 UNL1 0.000
    57 H      -7.814415    -6.713364    -4.431211 H          1 UNL1 0.000
    58 H      -6.692214    -4.510814    -4.192592 H          1 UNL1 0.000
    59 H      -6.215295    -3.604954    -2.016719 H          1 UNL1 0.000
    60 H      -3.600949     0.235055    -2.053716 H          1 UNL1 0.000
    61 H      -2.385379     0.226129    -4.171131 H          1 UNL1 0.000
    62 H       0.096783     0.310495    -4.178425 H          1 UNL1 0.000
    63 H       1.324989     0.388791    -2.078628 H          1 UNL1 0.000
    64 H       1.322683     0.521242     3.025605 H          1 UNL1 0.000
    65 H       0.092929     0.576636     5.124681 H          1 UNL1 0.000
    66 H      -2.390499     0.534888     5.117442 H          1 UNL1 0.000
    67 H      -3.601824     0.438077     3.004357 H          1 UNL1 0.000
    68 C       1.760143     0.454303     0.475125 C          1 UNL1 0.000
    69 C       2.504472    -0.734938     0.480121 C          1 UNL1 0.000
    70 C       3.901654    -0.702786     0.488891 C          1 UNL1 0.000
    71 C       4.581961     0.519524     0.495241 C          1 UNL1 0.000
    72 C       3.844718     1.709201     0.487695 C          1 UNL1 0.000
    73 C       2.448030     1.676998     0.477616 C          1 UNL1 0.000
    74 C       6.081144     0.568814     0.504224 C          1 UNL1 0.000
    75 H       1.993436    -1.695738     0.478124 H          1 UNL1 0.000
    76 H       4.451938    -1.640895     0.492259 H          1 UNL1 0.000
    77 H       4.354160     2.670259     0.491145 H          1 UNL1 0.000
    78 H       1.892743     2.612864     0.474772 H          1 UNL1 0.000
    79 H       6.435301     1.122989     1.379480 H          1 UNL1 0.000
    80 H       6.447272     1.057516    -0.404305 H          1 UNL1 0.000
    81 H       6.516070    -0.435186     0.545860 H          1 UNL1 0.000
@<TRIPOS>BOND
     1      1      2   2
     2      2      3   1
     3      3      4   2
     4      4      5   1
     5      5      6   2
     6      6      1   1
     7      4      7   1
     8      7      8   1
     9      8      9   2
    10      9     10   1
    11     10     11   2
    12     11     12   1
    13     12     13   2
    14     13      8   1
    15     25     26   2
    16     24     25   1
    17     23     24   2
    18     22     23   1
    19     21     22   2
    20     21     26   1
    21     19     20   2
    22     18     19   1
    23     17     18   2
    24     16     17   1
    25     15     16   2
    26     15     20   1
    27     14     15   1
    28     14     21   1
    29     11     14   1
    30     27     28   2
    31     28     29   1
    32     29     30   2
    33     30     31   1
    34     31     32   2
    35     32     27   1
    36     31     33   1
    37     33     34   2
    38     34     35   1
    39     35     36   2
    40     36     32   1
    41     34     37   1
    42     37     38   2
    43     38     39   1
    44     39     40   2
    45     40     35   1
    46      7     36   1
    47      1     41   1
    48      2     42   1
    49      3     43   1
    50      5     44   1
    51      6     45   1
    52      9     46   1
    53     10     47   1
    54     12     48   1
    55     13     49   1
    56     16     50   1
    57     17     51   1
    58     18     52   1
    59     19     53   1
    60     20     54   1
    61     22     55   1
    62     23     56   1
    63     24     57   1
    64     25     58   1
    65     26     59   1
    66     27     60   1
    67     28     61   1
    68     29     62   1
    69     30     63   1
    70     37     64   1
    71     38     65   1
    72     39     66   1
    73     40     67   1
    74     68     69   2
    75     69     70   1
    76     70     71   2
    77     71     72   1
    78     72     73   2
    79     73     68   1
    80     71     74   1
    81     69     75   1
    82     70     76   1
    83     72     77   1
    84     73     78   1
    85     74     79   1
    86     74     80   1
    87     74     81   1
    88     33     68   1
