# Produced with molli package
@<TRIPOS>MOLECULE
J_3_O
77 84 0 0 0
SMALL
USER_CHARGES

@<TRIPOS>ATOM
     1 C      -5.855368     4.245886     0.263431 C          1 UNL1 0.000
     2 C      -6.494250     3.115784    -0.237241 C          1 UNL1 0.000
     3 C      -5.877728     1.861056    -0.153969 C          1 UNL1 0.000
     4 C      -4.619827     1.701182     0.453706 C          1 UNL1 0.000
     5 C      -3.987092     2.868793     0.928360 C          1 UNL1 0.000
     6 C      -4.596757     4.124150     0.839092 C          1 UNL1 0.000
     7 N      -3.966506     0.408292     0.542171 N          1 UNL1 0.000
     8 C      -4.674584    -0.855868     0.589009 C          1 UNL1 0.000
     9 C      -5.952606    -0.968632     1.163452 C          1 UNL1 0.000
    10 C      -6.644678    -2.187953     1.174892 C          1 UNL1 0.000
    11 C      -6.075101    -3.341179     0.619038 C          1 UNL1 0.000
    12 C      -4.783280    -3.255305     0.090396 C          1 UNL1 0.000
    13 C      -4.092219    -2.037708     0.090173 C          1 UNL1 0.000
    14 N      -6.797878    -4.586612     0.598764 N          1 UNL1 0.000
    15 C      -7.283434    -5.120253     1.851008 C          1 UNL1 0.000
    16 C      -6.531761    -4.971243     3.032739 C          1 UNL1 0.000
    17 C      -6.985037    -5.485054     4.250593 C          1 UNL1 0.000
    18 C      -8.200775    -6.159227     4.311725 C          1 UNL1 0.000
    19 C      -8.967726    -6.309483     3.159107 C          1 UNL1 0.000
    20 C      -8.517300    -5.787104     1.942341 C          1 UNL1 0.000
    21 C      -7.018486    -5.257451    -0.665693 C          1 UNL1 0.000
    22 C      -7.148103    -6.655641    -0.751404 C          1 UNL1 0.000
    23 C      -7.387558    -7.291134    -1.975382 C          1 UNL1 0.000
    24 C      -7.478598    -6.543690    -3.145792 C          1 UNL1 0.000
    25 C      -7.327998    -5.161956    -3.094060 C          1 UNL1 0.000
    26 C      -7.103605    -4.527187    -1.868011 C          1 UNL1 0.000
    27 C      -2.506217     0.457034    -1.970508 C          1 UNL1 0.000
    28 C      -1.837475     0.462781    -3.192677 C          1 UNL1 0.000
    29 C      -0.456027     0.446993    -3.208313 C          1 UNL1 0.000
    30 C       0.243831     0.434937    -2.001724 C          1 UNL1 0.000
    31 C      -0.408279     0.433573    -0.739451 C          1 UNL1 0.000
    32 C      -1.820802     0.431993    -0.727899 C          1 UNL1 0.000
    33 C       0.306497     0.432488     0.500503 C          1 UNL1 0.000
    34 C      -0.384585     0.375673     1.752601 C          1 UNL1 0.000
    35 C      -1.797249     0.340088     1.766751 C          1 UNL1 0.000
    36 C      -2.504446     0.384605     0.526383 C          1 UNL1 0.000
    37 C       0.290282     0.366219     3.002510 C          1 UNL1 0.000
    38 C      -0.388006     0.335890     4.221231 C          1 UNL1 0.000
    39 C      -1.769525     0.301553     4.230319 C          1 UNL1 0.000
    40 C      -2.460536     0.297912     3.020443 C          1 UNL1 0.000
    41 H      -6.331345     5.220342     0.195576 H          1 UNL1 0.000
    42 H      -7.471349     3.208347    -0.704142 H          1 UNL1 0.000
    43 H      -6.390122     1.012368    -0.598688 H          1 UNL1 0.000
    44 H      -3.004924     2.823519     1.390540 H          1 UNL1 0.000
    45 H      -4.081790     5.002009     1.220711 H          1 UNL1 0.000
    46 H      -6.429539    -0.108072     1.625394 H          1 UNL1 0.000
    47 H      -7.643035    -2.229882     1.604037 H          1 UNL1 0.000
    48 H      -4.300272    -4.141651    -0.314447 H          1 UNL1 0.000
    49 H      -3.090581    -2.035860    -0.331164 H          1 UNL1 0.000
    50 H      -5.568738    -4.465882     3.010392 H          1 UNL1 0.000
    51 H      -6.382877    -5.360595     5.146738 H          1 UNL1 0.000
    52 H      -8.551242    -6.564135     5.257360 H          1 UNL1 0.000
    53 H      -9.920666    -6.830011     3.204518 H          1 UNL1 0.000
    54 H      -9.149187    -5.894753     1.064212 H          1 UNL1 0.000
    55 H      -7.051043    -7.273941     0.137459 H          1 UNL1 0.000
    56 H      -7.497514    -8.371900    -2.011127 H          1 UNL1 0.000
    57 H      -7.661733    -7.037087    -4.096642 H          1 UNL1 0.000
    58 H      -7.389231    -4.571998    -4.004819 H          1 UNL1 0.000
    59 H      -7.011448    -3.443775    -1.862830 H          1 UNL1 0.000
    60 H      -3.594313     0.455972    -1.995646 H          1 UNL1 0.000
    61 H      -2.400158     0.469082    -4.121840 H          1 UNL1 0.000
    62 H       0.083287     0.437777    -4.151312 H          1 UNL1 0.000
    63 H       1.330891     0.405704    -2.060833 H          1 UNL1 0.000
    64 H       1.378588     0.375585     3.041520 H          1 UNL1 0.000
    65 H       0.168309     0.334485     5.154409 H          1 UNL1 0.000
    66 H      -2.314747     0.276714     5.169593 H          1 UNL1 0.000
    67 H      -3.547917     0.273554     3.063851 H          1 UNL1 0.000
    68 C       1.779216     0.534328     0.486556 C          1 UNL1 0.000
    69 N       2.458310    -0.638867     0.499666 N          1 UNL1 0.000
    70 C       3.807027    -0.573210     0.478884 C          1 UNL1 0.000
    71 C       4.521489     0.612706     0.445166 C          1 UNL1 0.000
    72 C       3.812246     1.807482     0.433074 C          1 UNL1 0.000
    73 C       2.421172     1.772462     0.454485 C          1 UNL1 0.000
    74 H       4.315210    -1.533243     0.489616 H          1 UNL1 0.000
    75 H       5.605504     0.604534     0.428198 H          1 UNL1 0.000
    76 H       4.335912     2.758667     0.405791 H          1 UNL1 0.000
    77 H       1.845498     2.692647     0.443205 H          1 UNL1 0.000
@<TRIPOS>BOND
     1      1      2   2
     2      2      3   1
     3      3      4   2
     4      4      5   1
     5      5      6   2
     6      6      1   1
     7      4      7   1
     8      7      8   1
     9      8      9   2
    10      9     10   1
    11     10     11   2
    12     11     12   1
    13     12     13   2
    14     13      8   1
    15     25     26   2
    16     24     25   1
    17     23     24   2
    18     22     23   1
    19     21     22   2
    20     21     26   1
    21     19     20   2
    22     18     19   1
    23     17     18   2
    24     16     17   1
    25     15     16   2
    26     15     20   1
    27     14     15   1
    28     14     21   1
    29     11     14   1
    30     27     28   2
    31     28     29   1
    32     29     30   2
    33     30     31   1
    34     31     32   2
    35     32     27   1
    36     31     33   1
    37     33     34   2
    38     34     35   1
    39     35     36   2
    40     36     32   1
    41     34     37   1
    42     37     38   2
    43     38     39   1
    44     39     40   2
    45     40     35   1
    46      7     36   1
    47      1     41   1
    48      2     42   1
    49      3     43   1
    50      5     44   1
    51      6     45   1
    52      9     46   1
    53     10     47   1
    54     12     48   1
    55     13     49   1
    56     16     50   1
    57     17     51   1
    58     18     52   1
    59     19     53   1
    60     20     54   1
    61     22     55   1
    62     23     56   1
    63     24     57   1
    64     25     58   1
    65     26     59   1
    66     27     60   1
    67     28     61   1
    68     29     62   1
    69     30     63   1
    70     37     64   1
    71     38     65   1
    72     39     66   1
    73     40     67   1
    74     68     69   2
    75     69     70   1
    76     70     71   2
    77     71     72   1
    78     72     73   2
    79     73     68   1
    80     70     74   1
    81     71     75   1
    82     72     76   1
    83     73     77   1
    84     33     68   1
