# Produced with molli package
@<TRIPOS>MOLECULE
J_3_L
82 90 0 0 0
SMALL
USER_CHARGES

@<TRIPOS>ATOM
     1 C      -5.890531     4.210902     0.204432 C          1 UNL1 0.000
     2 C      -6.535498     3.062261    -0.243057 C          1 UNL1 0.000
     3 C      -5.903286     1.816391    -0.149363 C          1 UNL1 0.000
     4 C      -4.622102     1.684546     0.415710 C          1 UNL1 0.000
     5 C      -3.984473     2.869740     0.836243 C          1 UNL1 0.000
     6 C      -4.610515     4.116225     0.736674 C          1 UNL1 0.000
     7 N      -3.955855     0.399156     0.515429 N          1 UNL1 0.000
     8 C      -4.657861    -0.865420     0.595529 C          1 UNL1 0.000
     9 C      -5.900643    -0.980067     1.243411 C          1 UNL1 0.000
    10 C      -6.595489    -2.196984     1.282799 C          1 UNL1 0.000
    11 C      -6.064366    -3.344081     0.678718 C          1 UNL1 0.000
    12 C      -4.804188    -3.255234     0.076457 C          1 UNL1 0.000
    13 C      -4.108067    -2.040908     0.050699 C          1 UNL1 0.000
    14 N      -6.797554    -4.584017     0.668084 N          1 UNL1 0.000
    15 C      -7.244394    -5.142896     1.924234 C          1 UNL1 0.000
    16 C      -6.477786    -4.984752     3.095084 C          1 UNL1 0.000
    17 C      -6.894035    -5.526107     4.314760 C          1 UNL1 0.000
    18 C      -8.086232    -6.239702     4.389111 C          1 UNL1 0.000
    19 C      -8.867570    -6.401211     3.248208 C          1 UNL1 0.000
    20 C      -8.455097    -5.850025     2.030506 C          1 UNL1 0.000
    21 C      -7.070412    -5.224374    -0.601579 C          1 UNL1 0.000
    22 C      -7.149862    -6.623077    -0.724367 C          1 UNL1 0.000
    23 C      -7.434452    -7.228832    -1.953467 C          1 UNL1 0.000
    24 C      -7.624723    -6.448912    -3.090797 C          1 UNL1 0.000
    25 C      -7.528409    -5.064052    -3.001559 C          1 UNL1 0.000
    26 C      -7.256263    -4.459559    -1.770443 C          1 UNL1 0.000
    27 C      -2.494809     0.446906    -1.998406 C          1 UNL1 0.000
    28 C      -1.826214     0.462372    -3.220492 C          1 UNL1 0.000
    29 C      -0.444455     0.467738    -3.235897 C          1 UNL1 0.000
    30 C       0.255335     0.460173    -2.029259 C          1 UNL1 0.000
    31 C      -0.396096     0.442069    -0.767182 C          1 UNL1 0.000
    32 C      -1.809827     0.429813    -0.755686 C          1 UNL1 0.000
    33 C       0.318597     0.437481     0.472938 C          1 UNL1 0.000
    34 C      -0.373981     0.410915     1.725695 C          1 UNL1 0.000
    35 C      -1.786835     0.364512     1.739672 C          1 UNL1 0.000
    36 C      -2.493579     0.382893     0.498379 C          1 UNL1 0.000
    37 C       0.298945     0.445032     2.976154 C          1 UNL1 0.000
    38 C      -0.379144     0.434168     4.194937 C          1 UNL1 0.000
    39 C      -1.759850     0.377917     4.204037 C          1 UNL1 0.000
    40 C      -2.449464     0.340214     2.994027 C          1 UNL1 0.000
    41 H      -6.378579     5.178737     0.128628 H          1 UNL1 0.000
    42 H      -7.529771     3.132996    -0.676209 H          1 UNL1 0.000
    43 H      -6.423541     0.951359    -0.551413 H          1 UNL1 0.000
    44 H      -2.985082     2.846543     1.262188 H          1 UNL1 0.000
    45 H      -4.090931     5.008669     1.075950 H          1 UNL1 0.000
    46 H      -6.346065    -0.120111     1.737469 H          1 UNL1 0.000
    47 H      -7.568230    -2.239708     1.767084 H          1 UNL1 0.000
    48 H      -4.352408    -4.137074    -0.371959 H          1 UNL1 0.000
    49 H      -3.135254    -2.032767    -0.432699 H          1 UNL1 0.000
    50 H      -5.531126    -4.450051     3.063968 H          1 UNL1 0.000
    51 H      -6.281102    -5.392404     5.202251 H          1 UNL1 0.000
    52 H      -8.407225    -6.666519     5.335598 H          1 UNL1 0.000
    53 H      -9.802341    -6.952965     3.303068 H          1 UNL1 0.000
    54 H      -9.100357    -5.968700     1.163558 H          1 UNL1 0.000
    55 H      -6.976934    -7.261924     0.138128 H          1 UNL1 0.000
    56 H      -7.502227    -8.311588    -2.020042 H          1 UNL1 0.000
    57 H      -7.843625    -6.919397    -4.045734 H          1 UNL1 0.000
    58 H      -7.669079    -4.448836    -3.886435 H          1 UNL1 0.000
    59 H      -7.207500    -3.373933    -1.731274 H          1 UNL1 0.000
    60 H      -3.583127     0.437544    -2.023540 H          1 UNL1 0.000
    61 H      -2.388560     0.468273    -4.149819 H          1 UNL1 0.000
    62 H       0.095132     0.479582    -4.178724 H          1 UNL1 0.000
    63 H       1.342820     0.467839    -2.088962 H          1 UNL1 0.000
    64 H       1.386259     0.494231     3.016709 H          1 UNL1 0.000
    65 H       0.176401     0.473214     5.127711 H          1 UNL1 0.000
    66 H      -2.305438     0.371152     5.143291 H          1 UNL1 0.000
    67 H      -3.536618     0.308351     3.038194 H          1 UNL1 0.000
    68 C       1.801236     0.465209     0.462005 C          1 UNL1 0.000
    69 C       2.533524    -0.731117     0.497798 C          1 UNL1 0.000
    70 C       3.932810    -0.737537     0.500244 C          1 UNL1 0.000
    71 C       4.583702     0.499614     0.464340 C          1 UNL1 0.000
    72 C       3.896525     1.712179     0.424739 C          1 UNL1 0.000
    73 C       2.488271     1.694285     0.423316 C          1 UNL1 0.000
    74 N       5.928236     0.796618     0.460702 N          1 UNL1 0.000
    75 C       6.113401     2.153156     0.418791 C          1 UNL1 0.000
    76 C       4.872010     2.746558     0.394800 C          1 UNL1 0.000
    77 H       2.004581    -1.682815     0.528216 H          1 UNL1 0.000
    78 H       4.483722    -1.671675     0.531125 H          1 UNL1 0.000
    79 H       1.935136     2.629600     0.394748 H          1 UNL1 0.000
    80 H       6.666866     0.107463     0.486371 H          1 UNL1 0.000
    81 H       7.108276     2.577436     0.409991 H          1 UNL1 0.000
    82 H       4.681755     3.811246     0.360660 H          1 UNL1 0.000
@<TRIPOS>BOND
     1      1      2   2
     2      2      3   1
     3      3      4   2
     4      4      5   1
     5      5      6   2
     6      6      1   1
     7      4      7   1
     8      7      8   1
     9      8      9   2
    10      9     10   1
    11     10     11   2
    12     11     12   1
    13     12     13   2
    14     13      8   1
    15     25     26   2
    16     24     25   1
    17     23     24   2
    18     22     23   1
    19     21     22   2
    20     21     26   1
    21     19     20   2
    22     18     19   1
    23     17     18   2
    24     16     17   1
    25     15     16   2
    26     15     20   1
    27     14     15   1
    28     14     21   1
    29     11     14   1
    30     27     28   2
    31     28     29   1
    32     29     30   2
    33     30     31   1
    34     31     32   2
    35     32     27   1
    36     31     33   1
    37     33     34   2
    38     34     35   1
    39     35     36   2
    40     36     32   1
    41     34     37   1
    42     37     38   2
    43     38     39   1
    44     39     40   2
    45     40     35   1
    46      7     36   1
    47      1     41   1
    48      2     42   1
    49      3     43   1
    50      5     44   1
    51      6     45   1
    52      9     46   1
    53     10     47   1
    54     12     48   1
    55     13     49   1
    56     16     50   1
    57     17     51   1
    58     18     52   1
    59     19     53   1
    60     20     54   1
    61     22     55   1
    62     23     56   1
    63     24     57   1
    64     25     58   1
    65     26     59   1
    66     27     60   1
    67     28     61   1
    68     29     62   1
    69     30     63   1
    70     37     64   1
    71     38     65   1
    72     39     66   1
    73     40     67   1
    74     68     69   2
    75     69     70   1
    76     70     71   2
    77     71     72   1
    78     72     73   2
    79     73     68   1
    80     71     74   1
    81     74     75   1
    82     75     76   2
    83     76     72   1
    84     69     77   1
    85     70     78   1
    86     73     79   1
    87     74     80   1
    88     75     81   1
    89     76     82   1
    90     33     68   1
