# Produced with molli package
@<TRIPOS>MOLECULE
J_3_S
83 90 0 0 0
SMALL
USER_CHARGES

@<TRIPOS>ATOM
     1 C      -5.921412     4.227234     0.867177 C          1 UNL1 0.000
     2 C      -6.540817     3.079510     1.351258 C          1 UNL1 0.000
     3 C      -5.899894     1.838786     1.253837 C          1 UNL1 0.000
     4 C      -4.637034     1.710716     0.647503 C          1 UNL1 0.000
     5 C      -4.022639     2.895030     0.193199 C          1 UNL1 0.000
     6 C      -4.657415     4.136918     0.296451 C          1 UNL1 0.000
     7 N      -3.968450     0.428126     0.534751 N          1 UNL1 0.000
     8 C      -4.671016    -0.837070     0.463487 C          1 UNL1 0.000
     9 C      -5.934326    -0.946888    -0.145348 C          1 UNL1 0.000
    10 C      -6.627973    -2.164395    -0.178191 C          1 UNL1 0.000
    11 C      -6.072372    -3.318612     0.388117 C          1 UNL1 0.000
    12 C      -4.795482    -3.232957     0.955482 C          1 UNL1 0.000
    13 C      -4.102245    -2.017041     0.977553 C          1 UNL1 0.000
    14 N      -6.796242    -4.564046     0.403799 N          1 UNL1 0.000
    15 C      -7.029588    -5.199963     1.682300 C          1 UNL1 0.000
    16 C      -7.299644    -4.425890     2.828170 C          1 UNL1 0.000
    17 C      -7.540904    -5.023404     4.068313 C          1 UNL1 0.000
    18 C      -7.514842    -6.409260     4.189008 C          1 UNL1 0.000
    19 C      -7.233525    -7.195719     3.074422 C          1 UNL1 0.000
    20 C      -6.983871    -6.596282     1.834944 C          1 UNL1 0.000
    21 C      -7.283925    -5.122795    -0.839055 C          1 UNL1 0.000
    22 C      -8.421133    -5.949649    -0.886336 C          1 UNL1 0.000
    23 C      -8.876125    -6.494839    -2.092254 C          1 UNL1 0.000
    24 C      -8.217887    -6.204613    -3.283324 C          1 UNL1 0.000
    25 C      -7.102820    -5.373552    -3.269254 C          1 UNL1 0.000
    26 C      -6.638668    -4.844765    -2.060611 C          1 UNL1 0.000
    27 C      -2.512792     0.350262    -1.973486 C          1 UNL1 0.000
    28 C      -1.848186     0.363765    -3.197775 C          1 UNL1 0.000
    29 C      -0.467030     0.402641    -3.218166 C          1 UNL1 0.000
    30 C       0.237178     0.425124    -2.014129 C          1 UNL1 0.000
    31 C      -0.410140     0.420157    -0.749794 C          1 UNL1 0.000
    32 C      -1.823785     0.383281    -0.733835 C          1 UNL1 0.000
    33 C       0.307945     0.461878     0.487819 C          1 UNL1 0.000
    34 C      -0.382745     0.476712     1.742520 C          1 UNL1 0.000
    35 C      -1.796294     0.465143     1.760072 C          1 UNL1 0.000
    36 C      -2.506096     0.414626     0.520964 C          1 UNL1 0.000
    37 C       0.293741     0.502363     2.991808 C          1 UNL1 0.000
    38 C      -0.381240     0.511736     4.212355 C          1 UNL1 0.000
    39 C      -1.762666     0.503392     4.224726 C          1 UNL1 0.000
    40 C      -2.455921     0.484459     3.016411 C          1 UNL1 0.000
    41 H      -6.417188     5.191132     0.943714 H          1 UNL1 0.000
    42 H      -7.521941     3.146707     1.814059 H          1 UNL1 0.000
    43 H      -6.398714     0.973748     1.682624 H          1 UNL1 0.000
    44 H      -3.037977     2.873339    -0.265458 H          1 UNL1 0.000
    45 H      -4.158649     5.029649    -0.071923 H          1 UNL1 0.000
    46 H      -6.398042    -0.082474    -0.614036 H          1 UNL1 0.000
    47 H      -7.616467    -2.203324    -0.629736 H          1 UNL1 0.000
    48 H      -4.327905    -4.119459     1.377952 H          1 UNL1 0.000
    49 H      -3.115629    -2.012254     1.432223 H          1 UNL1 0.000
    50 H      -7.344359    -3.341549     2.759323 H          1 UNL1 0.000
    51 H      -7.753578    -4.403262     4.935152 H          1 UNL1 0.000
    52 H      -7.709298    -6.875285     5.151473 H          1 UNL1 0.000
    53 H      -7.204138    -8.278206     3.167905 H          1 UNL1 0.000
    54 H      -6.740326    -7.232794     0.987846 H          1 UNL1 0.000
    55 H      -8.981469    -6.171646     0.018261 H          1 UNL1 0.000
    56 H      -9.749642    -7.141595    -2.097387 H          1 UNL1 0.000
    57 H      -8.574650    -6.622728    -4.220768 H          1 UNL1 0.000
    58 H      -6.586407    -5.137064    -4.195879 H          1 UNL1 0.000
    59 H      -5.750115    -4.218157    -2.085327 H          1 UNL1 0.000
    60 H      -3.600875     0.327227    -1.995000 H          1 UNL1 0.000
    61 H      -2.413729     0.347495    -4.125216 H          1 UNL1 0.000
    62 H       0.068138     0.416328    -4.163647 H          1 UNL1 0.000
    63 H       1.323481     0.453573    -2.079213 H          1 UNL1 0.000
    64 H       1.381589     0.509785     3.032081 H          1 UNL1 0.000
    65 H       0.176938     0.524251     5.144428 H          1 UNL1 0.000
    66 H      -2.306133     0.508249     5.165347 H          1 UNL1 0.000
    67 H      -3.543396     0.471962     3.064133 H          1 UNL1 0.000
    68 C       1.789810     0.497269     0.474814 C          1 UNL1 0.000
    69 C       2.534713    -0.689365     0.532984 C          1 UNL1 0.000
    70 C       3.931903    -0.652213     0.552089 C          1 UNL1 0.000
    71 C       4.611887     0.572142     0.508619 C          1 UNL1 0.000
    72 C       3.876543     1.759955     0.432897 C          1 UNL1 0.000
    73 C       2.477265     1.720373     0.420352 C          1 UNL1 0.000
    74 C       6.105796     0.554300     0.549025 C          1 UNL1 0.000
    75 C       6.856658     1.861019     0.543112 C          1 UNL1 0.000
    76 O       6.704028    -0.517667     0.570802 O          1 UNL1 0.000
    77 H       2.026578    -1.651417     0.573086 H          1 UNL1 0.000
    78 H       4.486705    -1.587617     0.606018 H          1 UNL1 0.000
    79 H       4.360820     2.730683     0.386065 H          1 UNL1 0.000
    80 H       1.917102     2.653198     0.372472 H          1 UNL1 0.000
    81 H       7.903556     1.671139     0.800732 H          1 UNL1 0.000
    82 H       6.457621     2.546424     1.294682 H          1 UNL1 0.000
    83 H       6.816511     2.307794    -0.453356 H          1 UNL1 0.000
@<TRIPOS>BOND
     1      1      2   2
     2      2      3   1
     3      3      4   2
     4      4      5   1
     5      5      6   2
     6      6      1   1
     7      4      7   1
     8      7      8   1
     9      8      9   2
    10      9     10   1
    11     10     11   2
    12     11     12   1
    13     12     13   2
    14     13      8   1
    15     25     26   2
    16     24     25   1
    17     23     24   2
    18     22     23   1
    19     21     22   2
    20     21     26   1
    21     19     20   2
    22     18     19   1
    23     17     18   2
    24     16     17   1
    25     15     16   2
    26     15     20   1
    27     14     15   1
    28     14     21   1
    29     11     14   1
    30     27     28   2
    31     28     29   1
    32     29     30   2
    33     30     31   1
    34     31     32   2
    35     32     27   1
    36     31     33   1
    37     33     34   2
    38     34     35   1
    39     35     36   2
    40     36     32   1
    41     34     37   1
    42     37     38   2
    43     38     39   1
    44     39     40   2
    45     40     35   1
    46      7     36   1
    47      1     41   1
    48      2     42   1
    49      3     43   1
    50      5     44   1
    51      6     45   1
    52      9     46   1
    53     10     47   1
    54     12     48   1
    55     13     49   1
    56     16     50   1
    57     17     51   1
    58     18     52   1
    59     19     53   1
    60     20     54   1
    61     22     55   1
    62     23     56   1
    63     24     57   1
    64     25     58   1
    65     26     59   1
    66     27     60   1
    67     28     61   1
    68     29     62   1
    69     30     63   1
    70     37     64   1
    71     38     65   1
    72     39     66   1
    73     40     67   1
    74     68     69   2
    75     69     70   1
    76     70     71   2
    77     71     72   1
    78     72     73   2
    79     73     68   1
    80     71     74   1
    81     74     75   1
    82     74     76   2
    83     69     77   1
    84     70     78   1
    85     72     79   1
    86     73     80   1
    87     75     81   1
    88     75     82   1
    89     75     83   1
    90     33     68   1
