# Produced with molli package
@<TRIPOS>MOLECULE
J_3_P
82 89 0 0 0
SMALL
USER_CHARGES

@<TRIPOS>ATOM
     1 C      -5.835654     4.330576     0.688309 C          1 UNL1 0.000
     2 C      -6.496380     3.219718     1.200970 C          1 UNL1 0.000
     3 C      -5.883110     1.960105     1.178614 C          1 UNL1 0.000
     4 C      -4.619936     1.765430     0.593800 C          1 UNL1 0.000
     5 C      -3.959975     2.920515     0.121436 C          1 UNL1 0.000
     6 C      -4.557200     4.184709     0.166441 C          1 UNL1 0.000
     7 N      -3.985702     0.459147     0.510752 N          1 UNL1 0.000
     8 C      -4.695690    -0.808406     0.450758 C          1 UNL1 0.000
     9 C      -6.046870    -0.903180     0.075988 C          1 UNL1 0.000
    10 C      -6.738636    -2.122116     0.110831 C          1 UNL1 0.000
    11 C      -6.071936    -3.313298     0.415907 C          1 UNL1 0.000
    12 C      -4.702744    -3.256445     0.688061 C          1 UNL1 0.000
    13 C      -4.036526    -2.024520     0.731405 C          1 UNL1 0.000
    14 N      -6.776475    -4.569013     0.431745 N          1 UNL1 0.000
    15 C      -7.231232    -5.079450     1.716740 C          1 UNL1 0.000
    16 C      -6.571036    -4.748884     2.919114 C          1 UNL1 0.000
    17 C      -6.978889    -5.263126     4.156356 C          1 UNL1 0.000
    18 C      -8.070887    -6.117429     4.229511 C          1 UNL1 0.000
    19 C      -8.775141    -6.424868     3.071188 C          1 UNL1 0.000
    20 C      -8.373741    -5.892726     1.837759 C          1 UNL1 0.000
    21 C      -7.014813    -5.242249    -0.836178 C          1 UNL1 0.000
    22 C      -7.241311    -6.628881    -0.918935 C          1 UNL1 0.000
    23 C      -7.527855    -7.260062    -2.137438 C          1 UNL1 0.000
    24 C      -7.546502    -6.527819    -3.318617 C          1 UNL1 0.000
    25 C      -7.256462    -5.170887    -3.283295 C          1 UNL1 0.000
    26 C      -6.987979    -4.542379    -2.061370 C          1 UNL1 0.000
    27 C      -2.504789     0.314804    -1.983938 C          1 UNL1 0.000
    28 C      -1.829813     0.307105    -3.201952 C          1 UNL1 0.000
    29 C      -0.448121     0.354548    -3.210365 C          1 UNL1 0.000
    30 C       0.244360     0.402761    -2.000584 C          1 UNL1 0.000
    31 C      -0.412390     0.409472    -0.742020 C          1 UNL1 0.000
    32 C      -1.827615     0.372210    -0.739580 C          1 UNL1 0.000
    33 C       0.292616     0.469491     0.502274 C          1 UNL1 0.000
    34 C      -0.408684     0.495733     1.750308 C          1 UNL1 0.000
    35 C      -1.824076     0.487923     1.754140 C          1 UNL1 0.000
    36 C      -2.519628     0.429532     0.508083 C          1 UNL1 0.000
    37 C       0.253937     0.531723     3.005897 C          1 UNL1 0.000
    38 C      -0.432771     0.566407     4.219052 C          1 UNL1 0.000
    39 C      -1.815060     0.564101     4.217380 C          1 UNL1 0.000
    40 C      -2.495673     0.524183     3.002602 C          1 UNL1 0.000
    41 H      -6.308010     5.308774     0.709437 H          1 UNL1 0.000
    42 H      -7.489249     3.330042     1.629328 H          1 UNL1 0.000
    43 H      -6.412827     1.136871     1.648957 H          1 UNL1 0.000
    44 H      -2.963145     2.860910    -0.306709 H          1 UNL1 0.000
    45 H      -4.017962     5.049133    -0.212296 H          1 UNL1 0.000
    46 H      -6.596914    -0.031740    -0.265575 H          1 UNL1 0.000
    47 H      -7.797379    -2.145394    -0.136494 H          1 UNL1 0.000
    48 H      -4.154327    -4.170681     0.902073 H          1 UNL1 0.000
    49 H      -2.983520    -2.043618     1.000033 H          1 UNL1 0.000
    50 H      -5.708401    -4.090907     2.926123 H          1 UNL1 0.000
    51 H      -6.434262    -4.994037     5.057950 H          1 UNL1 0.000
    52 H      -8.379698    -6.528777     5.186646 H          1 UNL1 0.000
    53 H      -9.644413    -7.075377     3.122556 H          1 UNL1 0.000
    54 H      -8.987442    -6.118724     0.970060 H          1 UNL1 0.000
    55 H      -7.184661    -7.255211    -0.033045 H          1 UNL1 0.000
    56 H      -7.729122    -8.327939    -2.158715 H          1 UNL1 0.000
    57 H      -7.768255    -7.014607    -4.264224 H          1 UNL1 0.000
    58 H      -7.238763    -4.590973    -4.202519 H          1 UNL1 0.000
    59 H      -6.765503    -3.481071    -2.100369 H          1 UNL1 0.000
    60 H      -3.593369     0.288664    -2.013645 H          1 UNL1 0.000
    61 H      -2.386466     0.271624    -4.133937 H          1 UNL1 0.000
    62 H       0.095372     0.357392    -4.150881 H          1 UNL1 0.000
    63 H       1.331422     0.444894    -2.055868 H          1 UNL1 0.000
    64 H       1.342340     0.530921     3.056539 H          1 UNL1 0.000
    65 H       0.116306     0.595164     5.155965 H          1 UNL1 0.000
    66 H      -2.367346     0.590930     5.152223 H          1 UNL1 0.000
    67 H      -3.584099     0.515416     3.038913 H          1 UNL1 0.000
    68 C       1.775252     0.526796     0.500911 C          1 UNL1 0.000
    69 C       2.542678    -0.646628     0.411222 C          1 UNL1 0.000
    70 C       3.939032    -0.587392     0.423654 C          1 UNL1 0.000
    71 C       4.576858     0.648069     0.518781 C          1 UNL1 0.000
    72 C       3.833380     1.818972     0.634744 C          1 UNL1 0.000
    73 C       2.438926     1.760425     0.611679 C          1 UNL1 0.000
    74 O       5.939174     0.754441     0.583771 O          1 UNL1 0.000
    75 C       6.550442     0.343882    -0.638360 C          1 UNL1 0.000
    76 H       2.049887    -1.614456     0.341478 H          1 UNL1 0.000
    77 H       4.515810    -1.506164     0.381180 H          1 UNL1 0.000
    78 H       4.337214     2.775357     0.740457 H          1 UNL1 0.000
    79 H       1.865542     2.681522     0.695650 H          1 UNL1 0.000
    80 H       7.611279     0.606907    -0.584848 H          1 UNL1 0.000
    81 H       6.115456     0.869363    -1.496205 H          1 UNL1 0.000
    82 H       6.479527    -0.739812    -0.774847 H          1 UNL1 0.000
@<TRIPOS>BOND
     1      1      2   2
     2      2      3   1
     3      3      4   2
     4      4      5   1
     5      5      6   2
     6      6      1   1
     7      4      7   1
     8      7      8   1
     9      8      9   2
    10      9     10   1
    11     10     11   2
    12     11     12   1
    13     12     13   2
    14     13      8   1
    15     25     26   2
    16     24     25   1
    17     23     24   2
    18     22     23   1
    19     21     22   2
    20     21     26   1
    21     19     20   2
    22     18     19   1
    23     17     18   2
    24     16     17   1
    25     15     16   2
    26     15     20   1
    27     14     15   1
    28     14     21   1
    29     11     14   1
    30     27     28   2
    31     28     29   1
    32     29     30   2
    33     30     31   1
    34     31     32   2
    35     32     27   1
    36     31     33   1
    37     33     34   2
    38     34     35   1
    39     35     36   2
    40     36     32   1
    41     34     37   1
    42     37     38   2
    43     38     39   1
    44     39     40   2
    45     40     35   1
    46      7     36   1
    47      1     41   1
    48      2     42   1
    49      3     43   1
    50      5     44   1
    51      6     45   1
    52      9     46   1
    53     10     47   1
    54     12     48   1
    55     13     49   1
    56     16     50   1
    57     17     51   1
    58     18     52   1
    59     19     53   1
    60     20     54   1
    61     22     55   1
    62     23     56   1
    63     24     57   1
    64     25     58   1
    65     26     59   1
    66     27     60   1
    67     28     61   1
    68     29     62   1
    69     30     63   1
    70     37     64   1
    71     38     65   1
    72     39     66   1
    73     40     67   1
    74     68     69   2
    75     69     70   1
    76     70     71   2
    77     71     72   1
    78     72     73   2
    79     73     68   1
    80     74     75   1
    81     71     74   1
    82     69     76   1
    83     70     77   1
    84     72     78   1
    85     73     79   1
    86     75     80   1
    87     75     81   1
    88     75     82   1
    89     33     68   1
