# Produced with molli package
@<TRIPOS>MOLECULE
J_3_Q
76 83 0 0 0
SMALL
USER_CHARGES

@<TRIPOS>ATOM
     1 C      -5.835715     4.232674     0.327170 C          1 UNL1 0.000
     2 C      -6.501109     3.107118    -0.145345 C          1 UNL1 0.000
     3 C      -5.880875     1.850873    -0.107847 C          1 UNL1 0.000
     4 C      -4.606558     1.673597     0.457252 C          1 UNL1 0.000
     5 C      -3.942507     2.843840     0.886349 C          1 UNL1 0.000
     6 C      -4.545553     4.104644     0.823290 C          1 UNL1 0.000
     7 N      -3.964261     0.372071     0.563693 N          1 UNL1 0.000
     8 C      -4.662499    -0.902480     0.646026 C          1 UNL1 0.000
     9 C      -6.015750    -1.006312     1.009339 C          1 UNL1 0.000
    10 C      -6.697524    -2.231803     0.977774 C          1 UNL1 0.000
    11 C      -6.019849    -3.420964     0.690007 C          1 UNL1 0.000
    12 C      -4.647065    -3.356028     0.441840 C          1 UNL1 0.000
    13 C      -3.989594    -2.118417     0.395307 C          1 UNL1 0.000
    14 N      -6.719327    -4.678166     0.655826 N          1 UNL1 0.000
    15 C      -6.995055    -5.361401     1.908591 C          1 UNL1 0.000
    16 C      -7.010938    -4.675721     3.140294 C          1 UNL1 0.000
    17 C      -7.324924    -5.320896     4.342548 C          1 UNL1 0.000
    18 C      -7.614191    -6.679258     4.349943 C          1 UNL1 0.000
    19 C      -7.552804    -7.397271     3.161418 C          1 UNL1 0.000
    20 C      -7.226021    -6.749516     1.962840 C          1 UNL1 0.000
    21 C      -7.179868    -5.165444    -0.634588 C          1 UNL1 0.000
    22 C      -8.366202    -5.912270    -0.766960 C          1 UNL1 0.000
    23 C      -8.786886    -6.414257    -2.005627 C          1 UNL1 0.000
    24 C      -8.051551    -6.147309    -3.154924 C          1 UNL1 0.000
    25 C      -6.905909    -5.366540    -3.067080 C          1 UNL1 0.000
    26 C      -6.480797    -4.879382    -1.824925 C          1 UNL1 0.000
    27 C      -2.481601     0.383471    -1.934638 C          1 UNL1 0.000
    28 C      -1.803151     0.390880    -3.151778 C          1 UNL1 0.000
    29 C      -0.421375     0.384687    -3.157716 C          1 UNL1 0.000
    30 C       0.270738     0.373970    -1.946480 C          1 UNL1 0.000
    31 C      -0.391286     0.373920    -0.689033 C          1 UNL1 0.000
    32 C      -1.804719     0.374507    -0.687905 C          1 UNL1 0.000
    33 C       0.313791     0.374069     0.556586 C          1 UNL1 0.000
    34 C      -0.388023     0.351822     1.804368 C          1 UNL1 0.000
    35 C      -1.800848     0.332523     1.808135 C          1 UNL1 0.000
    36 C      -2.498632     0.351952     0.561675 C          1 UNL1 0.000
    37 C       0.276686     0.361766     3.060082 C          1 UNL1 0.000
    38 C      -0.412495     0.369718     4.272957 C          1 UNL1 0.000
    39 C      -1.794146     0.353005     4.270999 C          1 UNL1 0.000
    40 C      -2.475252     0.327694     3.056088 C          1 UNL1 0.000
    41 H      -6.313652     5.207832     0.294172 H          1 UNL1 0.000
    42 H      -7.503681     3.202826    -0.554309 H          1 UNL1 0.000
    43 H      -6.416407     1.017180    -0.552012 H          1 UNL1 0.000
    44 H      -2.936783     2.800409     1.294623 H          1 UNL1 0.000
    45 H      -4.002048     4.980198     1.168927 H          1 UNL1 0.000
    46 H      -6.578179    -0.137402     1.336001 H          1 UNL1 0.000
    47 H      -7.760029    -2.260141     1.207752 H          1 UNL1 0.000
    48 H      -4.087334    -4.267609     0.246347 H          1 UNL1 0.000
    49 H      -2.931737    -2.134837     0.145334 H          1 UNL1 0.000
    50 H      -6.792338    -3.614407     3.197285 H          1 UNL1 0.000
    51 H      -7.344250    -4.753183     5.269301 H          1 UNL1 0.000
    52 H      -7.870275    -7.178168     5.280489 H          1 UNL1 0.000
    53 H      -7.753913    -8.465363     3.161418 H          1 UNL1 0.000
    54 H      -7.144762    -7.359681     1.067076 H          1 UNL1 0.000
    55 H      -8.996324    -6.106011     0.097115 H          1 UNL1 0.000
    56 H      -9.694388    -7.009098    -2.068300 H          1 UNL1 0.000
    57 H      -8.375736    -6.535251    -4.116772 H          1 UNL1 0.000
    58 H      -6.333380    -5.134781    -3.961689 H          1 UNL1 0.000
    59 H      -5.574769    -4.282533    -1.815078 H          1 UNL1 0.000
    60 H      -3.569540     0.377574    -1.967601 H          1 UNL1 0.000
    61 H      -2.358816     0.395241    -4.085409 H          1 UNL1 0.000
    62 H       0.124058     0.382513    -4.097582 H          1 UNL1 0.000
    63 H       1.358054     0.351807    -2.001795 H          1 UNL1 0.000
    64 H       1.364311     0.359937     3.112682 H          1 UNL1 0.000
    65 H       0.135566     0.385481     5.211074 H          1 UNL1 0.000
    66 H      -2.347472     0.358824     5.205902 H          1 UNL1 0.000
    67 H      -3.563293     0.317401     3.090613 H          1 UNL1 0.000
    68 C       1.786020     0.426122     0.557214 C          1 UNL1 0.000
    69 N       2.436382    -0.765982     0.584532 N          1 UNL1 0.000
    70 C       3.787314    -0.700282     0.599145 C          1 UNL1 0.000
    71 C       4.474183     0.501684     0.586750 C          1 UNL1 0.000
    72 N       3.842731     1.696311     0.557380 N          1 UNL1 0.000
    73 C       2.488139     1.630762     0.543053 C          1 UNL1 0.000
    74 H       4.307857    -1.650893     0.622854 H          1 UNL1 0.000
    75 H       5.557608     0.535344     0.600988 H          1 UNL1 0.000
    76 H       1.973027     2.585551     0.522460 H          1 UNL1 0.000
@<TRIPOS>BOND
     1      1      2   2
     2      2      3   1
     3      3      4   2
     4      4      5   1
     5      5      6   2
     6      6      1   1
     7      4      7   1
     8      7      8   1
     9      8      9   2
    10      9     10   1
    11     10     11   2
    12     11     12   1
    13     12     13   2
    14     13      8   1
    15     25     26   2
    16     24     25   1
    17     23     24   2
    18     22     23   1
    19     21     22   2
    20     21     26   1
    21     19     20   2
    22     18     19   1
    23     17     18   2
    24     16     17   1
    25     15     16   2
    26     15     20   1
    27     14     15   1
    28     14     21   1
    29     11     14   1
    30     27     28   2
    31     28     29   1
    32     29     30   2
    33     30     31   1
    34     31     32   2
    35     32     27   1
    36     31     33   1
    37     33     34   2
    38     34     35   1
    39     35     36   2
    40     36     32   1
    41     34     37   1
    42     37     38   2
    43     38     39   1
    44     39     40   2
    45     40     35   1
    46      7     36   1
    47      1     41   1
    48      2     42   1
    49      3     43   1
    50      5     44   1
    51      6     45   1
    52      9     46   1
    53     10     47   1
    54     12     48   1
    55     13     49   1
    56     16     50   1
    57     17     51   1
    58     18     52   1
    59     19     53   1
    60     20     54   1
    61     22     55   1
    62     23     56   1
    63     24     57   1
    64     25     58   1
    65     26     59   1
    66     27     60   1
    67     28     61   1
    68     29     62   1
    69     30     63   1
    70     37     64   1
    71     38     65   1
    72     39     66   1
    73     40     67   1
    74     68     69   2
    75     69     70   1
    76     70     71   2
    77     71     72   1
    78     72     73   2
    79     73     68   1
    80     70     74   1
    81     71     75   1
    82     73     76   1
    83     33     68   1
