# Produced with molli package
@<TRIPOS>MOLECULE
J_3_K
80 87 0 0 0
SMALL
USER_CHARGES

@<TRIPOS>ATOM
     1 C      -5.827450     4.232940     0.790343 C          1 UNL1 0.000
     2 C      -6.447345     3.094948     1.296341 C          1 UNL1 0.000
     3 C      -5.813354     1.850448     1.208147 C          1 UNL1 0.000
     4 C      -4.554461     1.710273     0.595459 C          1 UNL1 0.000
     5 C      -3.939892     2.883801     0.116190 C          1 UNL1 0.000
     6 C      -4.570175     4.129038     0.206336 C          1 UNL1 0.000
     7 N      -3.893171     0.423176     0.502077 N          1 UNL1 0.000
     8 C      -4.610215    -0.833004     0.448576 C          1 UNL1 0.000
     9 C      -5.850451    -0.940524    -0.205317 C          1 UNL1 0.000
    10 C      -6.564245    -2.145616    -0.222500 C          1 UNL1 0.000
    11 C      -6.057388    -3.286771     0.413255 C          1 UNL1 0.000
    12 C      -4.801520    -3.203293     1.026603 C          1 UNL1 0.000
    13 C      -4.084034    -2.001376     1.028189 C          1 UNL1 0.000
    14 N      -6.811006    -4.513842     0.445832 N          1 UNL1 0.000
    15 C      -7.072131    -5.142195     1.722509 C          1 UNL1 0.000
    16 C      -7.264030    -4.366750     2.882763 C          1 UNL1 0.000
    17 C      -7.525190    -4.962502     4.120113 C          1 UNL1 0.000
    18 C      -7.600739    -6.348010     4.223286 C          1 UNL1 0.000
    19 C      -7.404725    -7.137273     3.092980 C          1 UNL1 0.000
    20 C      -7.135724    -6.540373     1.856538 C          1 UNL1 0.000
    21 C      -7.311538    -5.065138    -0.792689 C          1 UNL1 0.000
    22 C      -8.547998    -5.731361    -0.857030 C          1 UNL1 0.000
    23 C      -9.020835    -6.263857    -2.060694 C          1 UNL1 0.000
    24 C      -8.272295    -6.128589    -3.226883 C          1 UNL1 0.000
    25 C      -7.051332    -5.461862    -3.191551 C          1 UNL1 0.000
    26 C      -6.575908    -4.937065    -1.986581 C          1 UNL1 0.000
    27 C      -2.427090     0.302428    -1.997856 C          1 UNL1 0.000
    28 C      -1.756659     0.304810    -3.219145 C          1 UNL1 0.000
    29 C      -0.375761     0.345907    -3.233283 C          1 UNL1 0.000
    30 C       0.321990     0.377259    -2.025913 C          1 UNL1 0.000
    31 C      -0.331052     0.374544    -0.763964 C          1 UNL1 0.000
    32 C      -1.744427     0.344611    -0.754728 C          1 UNL1 0.000
    33 C       0.381322     0.415031     0.477603 C          1 UNL1 0.000
    34 C      -0.314472     0.438144     1.728777 C          1 UNL1 0.000
    35 C      -1.728020     0.448606     1.738603 C          1 UNL1 0.000
    36 C      -2.432332     0.394786     0.496361 C          1 UNL1 0.000
    37 C       0.355926     0.449721     2.981540 C          1 UNL1 0.000
    38 C      -0.325467     0.477871     4.198342 C          1 UNL1 0.000
    39 C      -1.706748     0.502219     4.203187 C          1 UNL1 0.000
    40 C      -2.393614     0.491098     2.991268 C          1 UNL1 0.000
    41 H      -6.318120     5.200069     0.859212 H          1 UNL1 0.000
    42 H      -7.423048     3.172811     1.768805 H          1 UNL1 0.000
    43 H      -6.312292     0.991763     1.649747 H          1 UNL1 0.000
    44 H      -2.960472     2.850162    -0.352726 H          1 UNL1 0.000
    45 H      -4.073309     5.014405    -0.181951 H          1 UNL1 0.000
    46 H      -6.277868    -0.083192    -0.719759 H          1 UNL1 0.000
    47 H      -7.533567    -2.182356    -0.714116 H          1 UNL1 0.000
    48 H      -4.369482    -4.080454     1.502924 H          1 UNL1 0.000
    49 H      -3.116654    -1.995459     1.521979 H          1 UNL1 0.000
    50 H      -7.230730    -3.281132     2.829782 H          1 UNL1 0.000
    51 H      -7.673844    -4.340729     4.999074 H          1 UNL1 0.000
    52 H      -7.809303    -6.811925     5.183787 H          1 UNL1 0.000
    53 H      -7.456781    -8.220119     3.171058 H          1 UNL1 0.000
    54 H      -6.961683    -7.182694     0.996708 H          1 UNL1 0.000
    55 H      -9.167101    -5.828126     0.031499 H          1 UNL1 0.000
    56 H      -9.977335    -6.779353    -2.085092 H          1 UNL1 0.000
    57 H      -8.641100    -6.539984    -4.162736 H          1 UNL1 0.000
    58 H      -6.463156    -5.350974    -4.098701 H          1 UNL1 0.000
    59 H      -5.609685    -4.437646    -1.985006 H          1 UNL1 0.000
    60 H      -3.515065     0.282023    -2.024954 H          1 UNL1 0.000
    61 H      -2.317604     0.281818    -4.149270 H          1 UNL1 0.000
    62 H       0.164078     0.355876    -4.176229 H          1 UNL1 0.000
    63 H       1.408103     0.412993    -2.087751 H          1 UNL1 0.000
    64 H       1.443225     0.430877     3.028204 H          1 UNL1 0.000
    65 H       0.227263     0.481327     5.133811 H          1 UNL1 0.000
    66 H      -2.255272     0.525036     5.140675 H          1 UNL1 0.000
    67 H      -3.481376     0.502687     3.033353 H          1 UNL1 0.000
    68 C       1.863507     0.447910     0.466698 C          1 UNL1 0.000
    69 C       2.605140    -0.744756     0.367171 C          1 UNL1 0.000
    70 C       4.000500    -0.716122     0.344013 C          1 UNL1 0.000
    71 C       4.649011     0.517385     0.438219 C          1 UNL1 0.000
    72 C       3.942800     1.717054     0.547401 C          1 UNL1 0.000
    73 C       2.547944     1.675952     0.553087 C          1 UNL1 0.000
    74 N       6.099006     0.553705     0.420066 N          1 UNL1 0.000
    75 O       6.664097     0.029009    -0.547828 O          1 UNL1 0.000
    76 O       6.660829     1.108108     1.374367 O          1 UNL1 0.000
    77 H       2.087422    -1.700969     0.302179 H          1 UNL1 0.000
    78 H       4.563008    -1.642798     0.259753 H          1 UNL1 0.000
    79 H       4.460074     2.670743     0.619683 H          1 UNL1 0.000
    80 H       1.985012     2.605584     0.628300 H          1 UNL1 0.000
@<TRIPOS>BOND
     1      1      2   2
     2      2      3   1
     3      3      4   2
     4      4      5   1
     5      5      6   2
     6      6      1   1
     7      4      7   1
     8      7      8   1
     9      8      9   2
    10      9     10   1
    11     10     11   2
    12     11     12   1
    13     12     13   2
    14     13      8   1
    15     25     26   2
    16     24     25   1
    17     23     24   2
    18     22     23   1
    19     21     22   2
    20     21     26   1
    21     19     20   2
    22     18     19   1
    23     17     18   2
    24     16     17   1
    25     15     16   2
    26     15     20   1
    27     14     15   1
    28     14     21   1
    29     11     14   1
    30     27     28   2
    31     28     29   1
    32     29     30   2
    33     30     31   1
    34     31     32   2
    35     32     27   1
    36     31     33   1
    37     33     34   2
    38     34     35   1
    39     35     36   2
    40     36     32   1
    41     34     37   1
    42     37     38   2
    43     38     39   1
    44     39     40   2
    45     40     35   1
    46      7     36   1
    47      1     41   1
    48      2     42   1
    49      3     43   1
    50      5     44   1
    51      6     45   1
    52      9     46   1
    53     10     47   1
    54     12     48   1
    55     13     49   1
    56     16     50   1
    57     17     51   1
    58     18     52   1
    59     19     53   1
    60     20     54   1
    61     22     55   1
    62     23     56   1
    63     24     57   1
    64     25     58   1
    65     26     59   1
    66     27     60   1
    67     28     61   1
    68     29     62   1
    69     30     63   1
    70     37     64   1
    71     38     65   1
    72     39     66   1
    73     40     67   1
    74     68     69   2
    75     69     70   1
    76     70     71   2
    77     71     72   1
    78     72     73   2
    79     73     68   1
    80     74     75   2
    81     74     76   1
    82     71     74   1
    83     69     77   1
    84     70     78   1
    85     72     79   1
    86     73     80   1
    87     33     68   1
