# Produced with molli package
@<TRIPOS>MOLECULE
J_3_M
79 86 0 0 0
SMALL
USER_CHARGES

@<TRIPOS>ATOM
     1 C      -5.761253     4.306314     0.649282 C          1 UNL1 0.000
     2 C      -6.468084     3.193607     1.088471 C          1 UNL1 0.000
     3 C      -5.868134     1.925679     1.085945 C          1 UNL1 0.000
     4 C      -4.578012     1.716839     0.571222 C          1 UNL1 0.000
     5 C      -3.871975     2.879120     0.183740 C          1 UNL1 0.000
     6 C      -4.449791     4.153244     0.224203 C          1 UNL1 0.000
     7 N      -3.955673     0.400481     0.470780 N          1 UNL1 0.000
     8 C      -4.664762    -0.873548     0.415108 C          1 UNL1 0.000
     9 C      -6.036586    -0.977665     0.128164 C          1 UNL1 0.000
    10 C      -6.723370    -2.199646     0.201432 C          1 UNL1 0.000
    11 C      -6.034558    -3.393448     0.435130 C          1 UNL1 0.000
    12 C      -4.649245    -3.334289     0.606785 C          1 UNL1 0.000
    13 C      -3.985321    -2.096274     0.620446 C          1 UNL1 0.000
    14 N      -6.734823    -4.655522     0.464864 N          1 UNL1 0.000
    15 C      -7.128561    -5.178441     1.770406 C          1 UNL1 0.000
    16 C      -6.530873    -4.700378     2.959286 C          1 UNL1 0.000
    17 C      -6.855723    -5.213764     4.222822 C          1 UNL1 0.000
    18 C      -7.793268    -6.229299     4.341450 C          1 UNL1 0.000
    19 C      -8.443618    -6.686248     3.202739 C          1 UNL1 0.000
    20 C      -8.140586    -6.140288     1.944972 C          1 UNL1 0.000
    21 C      -7.032628    -5.286889    -0.816049 C          1 UNL1 0.000
    22 C      -7.301725    -6.659639    -0.954301 C          1 UNL1 0.000
    23 C      -7.685172    -7.221549    -2.182256 C          1 UNL1 0.000
    24 C      -7.736507    -6.438091    -3.328595 C          1 UNL1 0.000
    25 C      -7.376573    -5.101435    -3.251511 C          1 UNL1 0.000
    26 C      -7.027039    -4.541068    -2.017066 C          1 UNL1 0.000
    27 C      -2.471107     0.376715    -2.032686 C          1 UNL1 0.000
    28 C      -1.794001     0.427478    -3.249650 C          1 UNL1 0.000
    29 C      -0.412417     0.457990    -3.256744 C          1 UNL1 0.000
    30 C       0.280085     0.441928    -2.046569 C          1 UNL1 0.000
    31 C      -0.378851     0.408421    -0.788776 C          1 UNL1 0.000
    32 C      -1.793304     0.370923    -0.786957 C          1 UNL1 0.000
    33 C       0.330817     0.432365     0.455269 C          1 UNL1 0.000
    34 C      -0.370489     0.434092     1.702944 C          1 UNL1 0.000
    35 C      -1.785425     0.404112     1.708358 C          1 UNL1 0.000
    36 C      -2.486212     0.370401     0.462997 C          1 UNL1 0.000
    37 C       0.295324     0.475287     2.956593 C          1 UNL1 0.000
    38 C      -0.391635     0.485285     4.170607 C          1 UNL1 0.000
    39 C      -1.773258     0.450051     4.171051 C          1 UNL1 0.000
    40 C      -2.456420     0.408851     2.957519 C          1 UNL1 0.000
    41 H      -6.222208     5.290028     0.657684 H          1 UNL1 0.000
    42 H      -7.488093     3.307904     1.446689 H          1 UNL1 0.000
    43 H      -6.439169     1.113500     1.523216 H          1 UNL1 0.000
    44 H      -2.846504     2.823107    -0.170396 H          1 UNL1 0.000
    45 H      -3.869009     5.018475    -0.084789 H          1 UNL1 0.000
    46 H      -6.617259    -0.115345    -0.180560 H          1 UNL1 0.000
    47 H      -7.797344    -2.224079     0.030684 H          1 UNL1 0.000
    48 H      -4.083735    -4.250455     0.759564 H          1 UNL1 0.000
    49 H      -2.913707    -2.119302     0.801060 H          1 UNL1 0.000
    50 H      -5.787103    -3.909682     2.936832 H          1 UNL1 0.000
    51 H      -6.366790    -4.816410     5.108724 H          1 UNL1 0.000
    52 H      -8.030593    -6.646128     5.316453 H          1 UNL1 0.000
    53 H      -9.199375    -7.463414     3.287089 H          1 UNL1 0.000
    54 H      -8.744023    -6.481842     1.110696 H          1 UNL1 0.000
    55 H      -7.203348    -7.338163    -0.112858 H          1 UNL1 0.000
    56 H      -7.935613    -8.277860    -2.238865 H          1 UNL1 0.000
    57 H      -8.032160    -6.870613    -4.280230 H          1 UNL1 0.000
    58 H      -7.369455    -4.482338    -4.144862 H          1 UNL1 0.000
    59 H      -6.755463    -3.490525    -2.028646 H          1 UNL1 0.000
    60 H      -3.559414     0.361424    -2.063294 H          1 UNL1 0.000
    61 H      -2.349841     0.448150    -4.182834 H          1 UNL1 0.000
    62 H       0.132420     0.499433    -4.195974 H          1 UNL1 0.000
    63 H       1.366888     0.470377    -2.102522 H          1 UNL1 0.000
    64 H       1.382347     0.506275     3.005478 H          1 UNL1 0.000
    65 H       0.156898     0.522467     5.107808 H          1 UNL1 0.000
    66 H      -2.325015     0.457411     5.106887 H          1 UNL1 0.000
    67 H      -3.544085     0.380882     2.995334 H          1 UNL1 0.000
    68 C       1.814026     0.470657     0.444516 C          1 UNL1 0.000
    69 C       2.560987    -0.718538     0.459885 C          1 UNL1 0.000
    70 C       3.958225    -0.685136     0.414307 C          1 UNL1 0.000
    71 C       4.629311     0.539947     0.352774 C          1 UNL1 0.000
    72 C       3.897030     1.731003     0.347015 C          1 UNL1 0.000
    73 C       2.499867     1.695712     0.394211 C          1 UNL1 0.000
    74 C       6.060517     0.574258     0.287465 C          1 UNL1 0.000
    75 N       7.220591     0.602047     0.230142 N          1 UNL1 0.000
    76 H       2.050705    -1.679766     0.498974 H          1 UNL1 0.000
    77 H       4.514483    -1.620843     0.420414 H          1 UNL1 0.000
    78 H       4.405199     2.692530     0.299287 H          1 UNL1 0.000
    79 H       1.941393     2.630540     0.381193 H          1 UNL1 0.000
@<TRIPOS>BOND
     1      1      2   2
     2      2      3   1
     3      3      4   2
     4      4      5   1
     5      5      6   2
     6      6      1   1
     7      4      7   1
     8      7      8   1
     9      8      9   2
    10      9     10   1
    11     10     11   2
    12     11     12   1
    13     12     13   2
    14     13      8   1
    15     25     26   2
    16     24     25   1
    17     23     24   2
    18     22     23   1
    19     21     22   2
    20     21     26   1
    21     19     20   2
    22     18     19   1
    23     17     18   2
    24     16     17   1
    25     15     16   2
    26     15     20   1
    27     14     15   1
    28     14     21   1
    29     11     14   1
    30     27     28   2
    31     28     29   1
    32     29     30   2
    33     30     31   1
    34     31     32   2
    35     32     27   1
    36     31     33   1
    37     33     34   2
    38     34     35   1
    39     35     36   2
    40     36     32   1
    41     34     37   1
    42     37     38   2
    43     38     39   1
    44     39     40   2
    45     40     35   1
    46      7     36   1
    47      1     41   1
    48      2     42   1
    49      3     43   1
    50      5     44   1
    51      6     45   1
    52      9     46   1
    53     10     47   1
    54     12     48   1
    55     13     49   1
    56     16     50   1
    57     17     51   1
    58     18     52   1
    59     19     53   1
    60     20     54   1
    61     22     55   1
    62     23     56   1
    63     24     57   1
    64     25     58   1
    65     26     59   1
    66     27     60   1
    67     28     61   1
    68     29     62   1
    69     30     63   1
    70     37     64   1
    71     38     65   1
    72     39     66   1
    73     40     67   1
    74     68     69   2
    75     69     70   1
    76     70     71   2
    77     71     72   1
    78     72     73   2
    79     73     68   1
    80     74     75   3
    81     71     74   1
    82     69     76   1
    83     70     77   1
    84     72     78   1
    85     73     79   1
    86     33     68   1
