# Produced with molli package
@<TRIPOS>MOLECULE
J_3_N
75 82 0 0 0
SMALL
USER_CHARGES

@<TRIPOS>ATOM
     1 C      -5.943450     4.309733     0.270196 C          1 UNL1 0.000
     2 C      -6.591870     3.183102    -0.225408 C          1 UNL1 0.000
     3 C      -5.967787     1.930272    -0.175723 C          1 UNL1 0.000
     4 C      -4.694390     1.766770     0.397963 C          1 UNL1 0.000
     5 C      -4.050903     2.932681     0.862775 C          1 UNL1 0.000
     6 C      -4.667002     4.186778     0.804432 C          1 UNL1 0.000
     7 N      -4.041042     0.472224     0.467671 N          1 UNL1 0.000
     8 C      -4.749600    -0.792058     0.512579 C          1 UNL1 0.000
     9 C      -6.022234    -0.910278     1.099180 C          1 UNL1 0.000
    10 C      -6.712257    -2.130727     1.113091 C          1 UNL1 0.000
    11 C      -6.142976    -3.280595     0.551367 C          1 UNL1 0.000
    12 C      -4.857928    -3.189126     0.006118 C          1 UNL1 0.000
    13 C      -4.170509    -1.969494     0.000323 C          1 UNL1 0.000
    14 N      -6.857348    -4.531620     0.540085 N          1 UNL1 0.000
    15 C      -7.283728    -5.098171     1.801898 C          1 UNL1 0.000
    16 C      -6.544100    -4.869357     2.979820 C          1 UNL1 0.000
    17 C      -6.936196    -5.414795     4.205821 C          1 UNL1 0.000
    18 C      -8.075401    -6.208922     4.281112 C          1 UNL1 0.000
    19 C      -8.831354    -6.441442     3.135648 C          1 UNL1 0.000
    20 C      -8.446980    -5.880081     1.912581 C          1 UNL1 0.000
    21 C      -7.107357    -5.176639    -0.732996 C          1 UNL1 0.000
    22 C      -7.180882    -6.575248    -0.859595 C          1 UNL1 0.000
    23 C      -7.449284    -7.181263    -2.092781 C          1 UNL1 0.000
    24 C      -7.621779    -6.402228    -3.233231 C          1 UNL1 0.000
    25 C      -7.523542    -5.017954    -3.142867 C          1 UNL1 0.000
    26 C      -7.272428    -4.413488    -1.906915 C          1 UNL1 0.000
    27 C      -2.528521     0.566489    -2.013631 C          1 UNL1 0.000
    28 C      -1.835530     0.608404    -3.221594 C          1 UNL1 0.000
    29 C      -0.453306     0.606609    -3.210390 C          1 UNL1 0.000
    30 C       0.222312     0.563618    -1.991256 C          1 UNL1 0.000
    31 C      -0.455497     0.517266    -0.742776 C          1 UNL1 0.000
    32 C      -1.869133     0.516052    -0.758642 C          1 UNL1 0.000
    33 C       0.219181     0.472204     0.515402 C          1 UNL1 0.000
    34 C      -0.484908     0.423535     1.757308 C          1 UNL1 0.000
    35 C      -1.898166     0.391483     1.739083 C          1 UNL1 0.000
    36 C      -2.577746     0.446266     0.481871 C          1 UNL1 0.000
    37 C       0.162621     0.420749     3.022538 C          1 UNL1 0.000
    38 C      -0.541885     0.387019     4.225518 C          1 UNL1 0.000
    39 C      -1.923377     0.345133     4.203118 C          1 UNL1 0.000
    40 C      -2.587056     0.343917     2.978105 C          1 UNL1 0.000
    41 H      -6.425759     5.282595     0.229981 H          1 UNL1 0.000
    42 H      -7.583335     3.276674    -0.660807 H          1 UNL1 0.000
    43 H      -6.490558     1.085739    -0.616138 H          1 UNL1 0.000
    44 H      -3.054820     2.888561     1.294433 H          1 UNL1 0.000
    45 H      -4.143331     5.062496     1.179214 H          1 UNL1 0.000
    46 H      -6.496229    -0.053345     1.570861 H          1 UNL1 0.000
    47 H      -7.706310    -2.177613     1.551674 H          1 UNL1 0.000
    48 H      -4.378595    -4.073764    -0.406740 H          1 UNL1 0.000
    49 H      -3.175194    -1.961478    -0.435043 H          1 UNL1 0.000
    50 H      -5.635523    -4.272071     2.952874 H          1 UNL1 0.000
    51 H      -6.344595    -5.221230     5.096752 H          1 UNL1 0.000
    52 H      -8.375389    -6.642205     5.231499 H          1 UNL1 0.000
    53 H      -9.725460    -7.056944     3.190948 H          1 UNL1 0.000
    54 H      -9.078938    -6.054296     1.045452 H          1 UNL1 0.000
    55 H      -7.016700    -7.216677     0.002474 H          1 UNL1 0.000
    56 H      -7.517731    -8.264005    -2.159884 H          1 UNL1 0.000
    57 H      -7.826879    -6.872854    -4.191167 H          1 UNL1 0.000
    58 H      -7.646667    -4.402840    -4.030451 H          1 UNL1 0.000
    59 H      -7.222306    -3.327865    -1.869839 H          1 UNL1 0.000
    60 H      -3.616493     0.563368    -2.060543 H          1 UNL1 0.000
    61 H      -2.379261     0.639939    -4.161510 H          1 UNL1 0.000
    62 H       0.104012     0.638355    -4.142432 H          1 UNL1 0.000
    63 H       1.310711     0.564006    -2.029401 H          1 UNL1 0.000
    64 H       1.249213     0.456595     3.087121 H          1 UNL1 0.000
    65 H      -0.007454     0.396237     5.171361 H          1 UNL1 0.000
    66 H      -2.489411     0.320811     5.130004 H          1 UNL1 0.000
    67 H      -3.675553     0.322113     2.998646 H          1 UNL1 0.000
    68 C       1.686643     0.491632     0.532790 C          1 UNL1 0.000
    69 C       2.418744    -0.679421     0.558642 C          1 UNL1 0.000
    70 S       4.105053    -0.384862     0.573304 S          1 UNL1 0.000
    71 C       3.867493     1.309368     0.541873 C          1 UNL1 0.000
    72 C       2.531646     1.645248     0.522412 C          1 UNL1 0.000
    73 H       2.048079    -1.696020     0.571246 H          1 UNL1 0.000
    74 H       4.718293     1.976779     0.538929 H          1 UNL1 0.000
    75 H       2.174262     2.667894     0.500325 H          1 UNL1 0.000
@<TRIPOS>BOND
     1      1      2   2
     2      2      3   1
     3      3      4   2
     4      4      5   1
     5      5      6   2
     6      6      1   1
     7      4      7   1
     8      7      8   1
     9      8      9   2
    10      9     10   1
    11     10     11   2
    12     11     12   1
    13     12     13   2
    14     13      8   1
    15     25     26   2
    16     24     25   1
    17     23     24   2
    18     22     23   1
    19     21     22   2
    20     21     26   1
    21     19     20   2
    22     18     19   1
    23     17     18   2
    24     16     17   1
    25     15     16   2
    26     15     20   1
    27     14     15   1
    28     14     21   1
    29     11     14   1
    30     27     28   2
    31     28     29   1
    32     29     30   2
    33     30     31   1
    34     31     32   2
    35     32     27   1
    36     31     33   1
    37     33     34   2
    38     34     35   1
    39     35     36   2
    40     36     32   1
    41     34     37   1
    42     37     38   2
    43     38     39   1
    44     39     40   2
    45     40     35   1
    46      7     36   1
    47      1     41   1
    48      2     42   1
    49      3     43   1
    50      5     44   1
    51      6     45   1
    52      9     46   1
    53     10     47   1
    54     12     48   1
    55     13     49   1
    56     16     50   1
    57     17     51   1
    58     18     52   1
    59     19     53   1
    60     20     54   1
    61     22     55   1
    62     23     56   1
    63     24     57   1
    64     25     58   1
    65     26     59   1
    66     27     60   1
    67     28     61   1
    68     29     62   1
    69     30     63   1
    70     37     64   1
    71     38     65   1
    72     39     66   1
    73     40     67   1
    74     68     69   2
    75     69     70   1
    76     70     71   1
    77     71     72   2
    78     72     68   1
    79     69     73   1
    80     71     74   1
    81     72     75   1
    82     33     68   1
