# Produced with molli package
@<TRIPOS>MOLECULE
J_4_P
74 79 0 0 0
SMALL
USER_CHARGES

@<TRIPOS>ATOM
     1 C      -5.159945     4.237788    -1.070672 C          1 UNL1 0.000
     2 C      -5.661722     3.137254    -1.759673 C          1 UNL1 0.000
     3 C      -5.044352     1.887043    -1.636423 C          1 UNL1 0.000
     4 C      -3.935333     1.701498    -0.794287 C          1 UNL1 0.000
     5 C      -3.432620     2.838380    -0.129339 C          1 UNL1 0.000
     6 C      -4.037055     4.091689    -0.264036 C          1 UNL1 0.000
     7 N      -3.290880     0.415549    -0.636338 N          1 UNL1 0.000
     8 C      -3.996249    -0.851039    -0.608853 C          1 UNL1 0.000
     9 C      -5.383255    -0.934085    -0.391048 C          1 UNL1 0.000
    10 C      -6.065421    -2.157155    -0.447191 C          1 UNL1 0.000
    11 C      -5.367249    -3.354289    -0.635019 C          1 UNL1 0.000
    12 C      -3.977508    -3.304241    -0.763483 C          1 UNL1 0.000
    13 C      -3.309666    -2.073268    -0.771983 C          1 UNL1 0.000
    14 N      -6.063630    -4.609520    -0.678277 N          1 UNL1 0.000
    15 C      -6.332319    -5.304255     0.565541 C          1 UNL1 0.000
    16 C      -6.378141    -4.620816     1.797408 C          1 UNL1 0.000
    17 C      -6.659428    -5.284588     2.996840 C          1 UNL1 0.000
    18 C      -6.888382    -6.654942     2.998230 C          1 UNL1 0.000
    19 C      -6.812274    -7.364382     1.804396 C          1 UNL1 0.000
    20 C      -6.523066    -6.698155     0.607336 C          1 UNL1 0.000
    21 C      -6.499743    -5.103282    -1.968961 C          1 UNL1 0.000
    22 C      -7.714503    -5.797317    -2.119333 C          1 UNL1 0.000
    23 C      -8.122370    -6.297556    -3.361676 C          1 UNL1 0.000
    24 C      -7.335382    -6.091918    -4.490529 C          1 UNL1 0.000
    25 C      -6.149717    -5.375000    -4.379608 C          1 UNL1 0.000
    26 C      -5.741512    -4.881440    -3.135338 C          1 UNL1 0.000
    27 C      -1.852071     0.412604    -0.648990 C          1 UNL1 0.000
    28 C      -1.164092     0.461856    -1.868002 C          1 UNL1 0.000
    29 C       0.226288     0.475010    -1.876415 C          1 UNL1 0.000
    30 C       0.947718     0.430994    -0.683107 C          1 UNL1 0.000
    31 C       0.276665     0.399117     0.548678 C          1 UNL1 0.000
    32 C      -1.127013     0.369367     0.552386 C          1 UNL1 0.000
    33 O       0.863905     0.465581    -3.087025 O          1 UNL1 0.000
    34 C       1.439774     1.742555    -3.360118 C          1 UNL1 0.000
    35 H      -5.637400     5.209041    -1.168917 H          1 UNL1 0.000
    36 H      -6.531590     3.249729    -2.401572 H          1 UNL1 0.000
    37 H      -5.434743     1.060253    -2.224100 H          1 UNL1 0.000
    38 H      -2.566775     2.759185     0.522056 H          1 UNL1 0.000
    39 H      -3.629670     4.948335     0.266454 H          1 UNL1 0.000
    40 H      -5.968674    -0.047010    -0.167773 H          1 UNL1 0.000
    41 H      -7.144429    -2.177569    -0.314990 H          1 UNL1 0.000
    42 H      -3.411341    -4.223986    -0.887428 H          1 UNL1 0.000
    43 H      -2.232939    -2.097270    -0.918577 H          1 UNL1 0.000
    44 H      -6.209067    -3.549744     1.850984 H          1 UNL1 0.000
    45 H      -6.699277    -4.722880     3.926748 H          1 UNL1 0.000
    46 H      -7.113146    -7.169752     3.928262 H          1 UNL1 0.000
    47 H      -6.971063    -8.439341     1.800094 H          1 UNL1 0.000
    48 H      -6.433069    -7.295530    -0.296492 H          1 UNL1 0.000
    49 H      -8.371131    -5.946018    -1.265550 H          1 UNL1 0.000
    50 H      -9.058345    -6.843397    -3.444487 H          1 UNL1 0.000
    51 H      -7.649256    -6.481027    -5.455413 H          1 UNL1 0.000
    52 H      -5.534048    -5.198805    -5.258181 H          1 UNL1 0.000
    53 H      -4.803366    -4.336925    -3.096300 H          1 UNL1 0.000
    54 H      -1.714937     0.481320    -2.803854 H          1 UNL1 0.000
    55 H       2.034468     0.426495    -0.710797 H          1 UNL1 0.000
    56 H      -1.667914     0.333198     1.496335 H          1 UNL1 0.000
    57 H       2.325923     1.911373    -2.739889 H          1 UNL1 0.000
    58 H       0.713131     2.551069    -3.219253 H          1 UNL1 0.000
    59 H       1.752980     1.749926    -4.408505 H          1 UNL1 0.000
    60 C       1.020897     0.438766     1.809158 C          1 UNL1 0.000
    61 C       1.603719    -0.719129     2.346155 C          1 UNL1 0.000
    62 C       2.303400    -0.667951     3.554990 C          1 UNL1 0.000
    63 C       2.437267     0.546878     4.222786 C          1 UNL1 0.000
    64 C       1.849646     1.702597     3.719054 C          1 UNL1 0.000
    65 C       1.150732     1.648679     2.512256 C          1 UNL1 0.000
    66 O       3.084420     0.606553     5.426181 O          1 UNL1 0.000
    67 C       4.493314     0.708507     5.219986 C          1 UNL1 0.000
    68 H       1.500868    -1.671507     1.830226 H          1 UNL1 0.000
    69 H       2.730255    -1.573436     3.975726 H          1 UNL1 0.000
    70 H       1.932973     2.639354     4.261743 H          1 UNL1 0.000
    71 H       0.699910     2.557935     2.119767 H          1 UNL1 0.000
    72 H       4.966432     0.833483     6.198619 H          1 UNL1 0.000
    73 H       4.744039     1.583178     4.609038 H          1 UNL1 0.000
    74 H       4.892952    -0.203548     4.763945 H          1 UNL1 0.000
@<TRIPOS>BOND
     1      1      2   2
     2      2      3   1
     3      3      4   2
     4      4      5   1
     5      5      6   2
     6      6      1   1
     7      4      7   1
     8      7      8   1
     9      8      9   2
    10      9     10   1
    11     10     11   2
    12     11     12   1
    13     12     13   2
    14     13      8   1
    15     25     26   2
    16     24     25   1
    17     23     24   2
    18     22     23   1
    19     21     22   2
    20     21     26   1
    21     19     20   2
    22     18     19   1
    23     17     18   2
    24     16     17   1
    25     15     16   2
    26     15     20   1
    27     14     15   1
    28     14     21   1
    29     11     14   1
    30     27     28   2
    31     28     29   1
    32     29     30   2
    33     30     31   1
    34     31     32   2
    35     32     27   1
    36     33     34   1
    37     29     33   1
    38      7     27   1
    39      1     35   1
    40      2     36   1
    41      3     37   1
    42      5     38   1
    43      6     39   1
    44      9     40   1
    45     10     41   1
    46     12     42   1
    47     13     43   1
    48     16     44   1
    49     17     45   1
    50     18     46   1
    51     19     47   1
    52     20     48   1
    53     22     49   1
    54     23     50   1
    55     24     51   1
    56     25     52   1
    57     26     53   1
    58     28     54   1
    59     30     55   1
    60     32     56   1
    61     34     57   1
    62     34     58   1
    63     34     59   1
    64     60     61   2
    65     61     62   1
    66     62     63   2
    67     63     64   1
    68     64     65   2
    69     65     60   1
    70     66     67   1
    71     63     66   1
    72     61     68   1
    73     62     69   1
    74     64     70   1
    75     65     71   1
    76     67     72   1
    77     67     73   1
    78     67     74   1
    79     31     60   1
