# Produced with molli package
@<TRIPOS>MOLECULE
J_4_K
72 77 0 0 0
SMALL
USER_CHARGES

@<TRIPOS>ATOM
     1 C      -5.171626     4.258894    -1.000521 C          1 UNL1 0.000
     2 C      -5.800764     3.125705    -1.506386 C          1 UNL1 0.000
     3 C      -5.174754     1.875760    -1.425455 C          1 UNL1 0.000
     4 C      -3.917452     1.723544    -0.814450 C          1 UNL1 0.000
     5 C      -3.295624     2.893541    -0.331200 C          1 UNL1 0.000
     6 C      -3.914004     4.144890    -0.420261 C          1 UNL1 0.000
     7 N      -3.259558     0.436589    -0.719644 N          1 UNL1 0.000
     8 C      -3.966595    -0.825083    -0.700946 C          1 UNL1 0.000
     9 C      -5.229400    -0.954800    -0.097725 C          1 UNL1 0.000
    10 C      -5.922072    -2.173149    -0.109292 C          1 UNL1 0.000
    11 C      -5.365762    -3.308836    -0.713754 C          1 UNL1 0.000
    12 C      -4.091448    -3.203653    -1.281410 C          1 UNL1 0.000
    13 C      -3.401721    -1.986162    -1.263977 C          1 UNL1 0.000
    14 N      -6.081375    -4.559257    -0.743183 N          1 UNL1 0.000
    15 C      -6.545685    -5.121266     0.506609 C          1 UNL1 0.000
    16 C      -5.823893    -4.914284     1.699573 C          1 UNL1 0.000
    17 C      -6.263165    -5.438740     2.918196 C          1 UNL1 0.000
    18 C      -7.431568    -6.191342     2.969661 C          1 UNL1 0.000
    19 C      -8.165527    -6.408300     1.806557 C          1 UNL1 0.000
    20 C      -7.732747    -5.869214     0.589935 C          1 UNL1 0.000
    21 C      -6.312068    -5.202463    -2.020235 C          1 UNL1 0.000
    22 C      -6.377975    -6.601282    -2.147722 C          1 UNL1 0.000
    23 C      -6.622468    -7.207363    -3.385765 C          1 UNL1 0.000
    24 C      -6.782021    -6.427889    -4.528083 C          1 UNL1 0.000
    25 C      -6.695386    -5.042938    -4.434847 C          1 UNL1 0.000
    26 C      -6.466075    -4.438409    -3.194883 C          1 UNL1 0.000
    27 C      -1.822617     0.412036    -0.730193 C          1 UNL1 0.000
    28 C      -1.126927     0.462445    -1.943182 C          1 UNL1 0.000
    29 C       0.262871     0.443907    -1.940769 C          1 UNL1 0.000
    30 C       0.977099     0.387079    -0.744649 C          1 UNL1 0.000
    31 C       0.298681     0.366361     0.484120 C          1 UNL1 0.000
    32 C      -1.105638     0.355029     0.476665 C          1 UNL1 0.000
    33 O       0.919895     0.411266    -3.138910 O          1 UNL1 0.000
    34 C       1.312723     1.725958    -3.531462 C          1 UNL1 0.000
    35 H      -5.656071     5.229442    -1.066243 H          1 UNL1 0.000
    36 H      -6.778297     3.211351    -1.973966 H          1 UNL1 0.000
    37 H      -5.681255     1.023739    -1.871044 H          1 UNL1 0.000
    38 H      -2.316972     2.850237     0.137907 H          1 UNL1 0.000
    39 H      -3.409272     5.026353    -0.033424 H          1 UNL1 0.000
    40 H      -5.692032    -0.107324     0.401988 H          1 UNL1 0.000
    41 H      -6.908929    -2.229075     0.344356 H          1 UNL1 0.000
    42 H      -3.622132    -4.075484    -1.731398 H          1 UNL1 0.000
    43 H      -2.417479    -1.964676    -1.723252 H          1 UNL1 0.000
    44 H      -4.895919    -4.347009     1.689740 H          1 UNL1 0.000
    45 H      -5.687717    -5.259092     3.822501 H          1 UNL1 0.000
    46 H      -7.771487    -6.604598     3.915521 H          1 UNL1 0.000
    47 H      -9.081526    -6.992082     1.843757 H          1 UNL1 0.000
    48 H      -8.346904    -6.028342    -0.292759 H          1 UNL1 0.000
    49 H      -6.225823    -7.241233    -1.282267 H          1 UNL1 0.000
    50 H      -6.682808    -8.290421    -3.455460 H          1 UNL1 0.000
    51 H      -6.969096    -6.898648    -5.489681 H          1 UNL1 0.000
    52 H      -6.810553    -4.427567    -5.323363 H          1 UNL1 0.000
    53 H      -6.424518    -3.352478    -3.154787 H          1 UNL1 0.000
    54 H      -1.671053     0.495066    -2.882628 H          1 UNL1 0.000
    55 H       2.063815     0.369249    -0.772304 H          1 UNL1 0.000
    56 H      -1.656588     0.323917     1.415053 H          1 UNL1 0.000
    57 H       2.318702     1.935179    -3.155151 H          1 UNL1 0.000
    58 H       0.615969     2.501669    -3.191793 H          1 UNL1 0.000
    59 H       1.340326     1.753603    -4.624972 H          1 UNL1 0.000
    60 C       1.039261     0.392576     1.749182 C          1 UNL1 0.000
    61 C       1.746613    -0.735259     2.197115 C          1 UNL1 0.000
    62 C       2.470580    -0.697725     3.392647 C          1 UNL1 0.000
    63 C       2.483692     0.479400     4.147894 C          1 UNL1 0.000
    64 C       1.781468     1.613136     3.727899 C          1 UNL1 0.000
    65 C       1.063871     1.562752     2.530199 C          1 UNL1 0.000
    66 N       3.247750     0.530418     5.392415 N          1 UNL1 0.000
    67 O       4.253109    -0.192024     5.474779 O          1 UNL1 0.000
    68 O       2.845851     1.292488     6.280463 O          1 UNL1 0.000
    69 H       1.731954    -1.653838     1.612096 H          1 UNL1 0.000
    70 H       3.010657    -1.583500     3.720537 H          1 UNL1 0.000
    71 H       1.792448     2.532355     4.309452 H          1 UNL1 0.000
    72 H       0.527649     2.450327     2.196653 H          1 UNL1 0.000
@<TRIPOS>BOND
     1      1      2   2
     2      2      3   1
     3      3      4   2
     4      4      5   1
     5      5      6   2
     6      6      1   1
     7      4      7   1
     8      7      8   1
     9      8      9   2
    10      9     10   1
    11     10     11   2
    12     11     12   1
    13     12     13   2
    14     13      8   1
    15     25     26   2
    16     24     25   1
    17     23     24   2
    18     22     23   1
    19     21     22   2
    20     21     26   1
    21     19     20   2
    22     18     19   1
    23     17     18   2
    24     16     17   1
    25     15     16   2
    26     15     20   1
    27     14     15   1
    28     14     21   1
    29     11     14   1
    30     27     28   2
    31     28     29   1
    32     29     30   2
    33     30     31   1
    34     31     32   2
    35     32     27   1
    36     33     34   1
    37     29     33   1
    38      7     27   1
    39      1     35   1
    40      2     36   1
    41      3     37   1
    42      5     38   1
    43      6     39   1
    44      9     40   1
    45     10     41   1
    46     12     42   1
    47     13     43   1
    48     16     44   1
    49     17     45   1
    50     18     46   1
    51     19     47   1
    52     20     48   1
    53     22     49   1
    54     23     50   1
    55     24     51   1
    56     25     52   1
    57     26     53   1
    58     28     54   1
    59     30     55   1
    60     32     56   1
    61     34     57   1
    62     34     58   1
    63     34     59   1
    64     60     61   2
    65     61     62   1
    66     62     63   2
    67     63     64   1
    68     64     65   2
    69     65     60   1
    70     66     67   2
    71     66     68   1
    72     63     66   1
    73     61     69   1
    74     62     70   1
    75     64     71   1
    76     65     72   1
    77     31     60   1
