# Produced with molli package
@<TRIPOS>MOLECULE
J_4_Q
68 73 0 0 0
SMALL
USER_CHARGES

@<TRIPOS>ATOM
     1 C      -5.300856     4.229564    -0.566108 C          1 UNL1 0.000
     2 C      -5.918637     3.093529    -0.052172 C          1 UNL1 0.000
     3 C      -5.267315     1.854650    -0.097061 C          1 UNL1 0.000
     4 C      -3.995637     1.716378    -0.680607 C          1 UNL1 0.000
     5 C      -3.384811     2.889869    -1.169332 C          1 UNL1 0.000
     6 C      -4.028590     4.130133    -1.116235 C          1 UNL1 0.000
     7 N      -3.318051     0.439082    -0.750682 N          1 UNL1 0.000
     8 C      -4.003802    -0.832592    -0.813258 C          1 UNL1 0.000
     9 C      -5.256455    -0.973956    -1.434243 C          1 UNL1 0.000
    10 C      -5.927487    -2.204674    -1.451357 C          1 UNL1 0.000
    11 C      -5.359403    -3.338654    -0.855136 C          1 UNL1 0.000
    12 C      -4.087037    -3.223782    -0.283650 C          1 UNL1 0.000
    13 C      -3.420387    -1.993877    -0.270031 C          1 UNL1 0.000
    14 N      -6.072542    -4.590509    -0.817053 N          1 UNL1 0.000
    15 C      -6.304248    -5.229194     0.463699 C          1 UNL1 0.000
    16 C      -6.372925    -4.468593     1.649548 C          1 UNL1 0.000
    17 C      -6.585943    -5.068652     2.894591 C          1 UNL1 0.000
    18 C      -6.751037    -6.446165     2.983003 C          1 UNL1 0.000
    19 C      -6.685979    -7.222997     1.829995 C          1 UNL1 0.000
    20 C      -6.451213    -6.622392     0.586992 C          1 UNL1 0.000
    21 C      -6.531748    -5.158667    -2.064641 C          1 UNL1 0.000
    22 C      -7.754376    -5.844825    -2.162547 C          1 UNL1 0.000
    23 C      -8.176066    -6.401850    -3.374777 C          1 UNL1 0.000
    24 C      -7.392768    -6.265490    -4.518037 C          1 UNL1 0.000
    25 C      -6.189276    -5.570597    -4.452155 C          1 UNL1 0.000
    26 C      -5.763846    -5.024102    -3.238191 C          1 UNL1 0.000
    27 C      -1.881213     0.433501    -0.785235 C          1 UNL1 0.000
    28 C      -1.210972     0.299465    -2.006490 C          1 UNL1 0.000
    29 C       0.176767     0.364162    -2.038713 C          1 UNL1 0.000
    30 C       0.915190     0.447471    -0.858318 C          1 UNL1 0.000
    31 C       0.263556     0.541800     0.381538 C          1 UNL1 0.000
    32 C      -1.140108     0.576779     0.399806 C          1 UNL1 0.000
    33 O       0.792492     0.312809    -3.259350 O          1 UNL1 0.000
    34 C       1.383191     1.577140    -3.570887 C          1 UNL1 0.000
    35 H      -5.804827     5.191545    -0.529422 H          1 UNL1 0.000
    36 H      -6.907474     3.168739     0.392632 H          1 UNL1 0.000
    37 H      -5.766331     0.999437     0.350772 H          1 UNL1 0.000
    38 H      -2.394803     2.857532    -1.616042 H          1 UNL1 0.000
    39 H      -3.531053     5.013672    -1.507545 H          1 UNL1 0.000
    40 H      -5.729646    -0.125945    -1.922841 H          1 UNL1 0.000
    41 H      -6.910794    -2.268601    -1.911498 H          1 UNL1 0.000
    42 H      -3.607878    -4.095545     0.155786 H          1 UNL1 0.000
    43 H      -2.441608    -1.958178     0.199710 H          1 UNL1 0.000
    44 H      -6.270504    -3.386388     1.618448 H          1 UNL1 0.000
    45 H      -6.625682    -4.454574     3.790524 H          1 UNL1 0.000
    46 H      -6.925634    -6.913241     3.948601 H          1 UNL1 0.000
    47 H      -6.810535    -8.300846     1.894681 H          1 UNL1 0.000
    48 H      -6.370004    -7.266408    -0.284777 H          1 UNL1 0.000
    49 H      -8.400973    -5.941508    -1.293976 H          1 UNL1 0.000
    50 H      -9.120061    -6.938201    -3.424384 H          1 UNL1 0.000
    51 H      -7.721364    -6.696435    -5.460094 H          1 UNL1 0.000
    52 H      -5.575305    -5.454853    -5.341508 H          1 UNL1 0.000
    53 H      -4.809548    -4.502791    -3.212897 H          1 UNL1 0.000
    54 H      -1.774598     0.197632    -2.929344 H          1 UNL1 0.000
    55 H       2.001658     0.446177    -0.904705 H          1 UNL1 0.000
    56 H      -1.667863     0.682971     1.346435 H          1 UNL1 0.000
    57 H       2.357183     1.674315    -3.080807 H          1 UNL1 0.000
    58 H       0.733163     2.416695    -3.294288 H          1 UNL1 0.000
    59 H       1.538998     1.617848    -4.652970 H          1 UNL1 0.000
    60 C       1.026820     0.581532     1.626158 C          1 UNL1 0.000
    61 N       1.051784     1.765487     2.288137 N          1 UNL1 0.000
    62 C       1.773169     1.782521     3.433379 C          1 UNL1 0.000
    63 C       2.440601     0.667861     3.913268 C          1 UNL1 0.000
    64 N       2.419804    -0.519698     3.269483 N          1 UNL1 0.000
    65 C       1.700394    -0.535109     2.120241 C          1 UNL1 0.000
    66 H       1.802597     2.729176     3.961009 H          1 UNL1 0.000
    67 H       3.012969     0.700800     4.833076 H          1 UNL1 0.000
    68 H       1.672976    -1.488003     1.601121 H          1 UNL1 0.000
@<TRIPOS>BOND
     1      1      2   2
     2      2      3   1
     3      3      4   2
     4      4      5   1
     5      5      6   2
     6      6      1   1
     7      4      7   1
     8      7      8   1
     9      8      9   2
    10      9     10   1
    11     10     11   2
    12     11     12   1
    13     12     13   2
    14     13      8   1
    15     25     26   2
    16     24     25   1
    17     23     24   2
    18     22     23   1
    19     21     22   2
    20     21     26   1
    21     19     20   2
    22     18     19   1
    23     17     18   2
    24     16     17   1
    25     15     16   2
    26     15     20   1
    27     14     15   1
    28     14     21   1
    29     11     14   1
    30     27     28   2
    31     28     29   1
    32     29     30   2
    33     30     31   1
    34     31     32   2
    35     32     27   1
    36     33     34   1
    37     29     33   1
    38      7     27   1
    39      1     35   1
    40      2     36   1
    41      3     37   1
    42      5     38   1
    43      6     39   1
    44      9     40   1
    45     10     41   1
    46     12     42   1
    47     13     43   1
    48     16     44   1
    49     17     45   1
    50     18     46   1
    51     19     47   1
    52     20     48   1
    53     22     49   1
    54     23     50   1
    55     24     51   1
    56     25     52   1
    57     26     53   1
    58     28     54   1
    59     30     55   1
    60     32     56   1
    61     34     57   1
    62     34     58   1
    63     34     59   1
    64     60     61   2
    65     61     62   1
    66     62     63   2
    67     63     64   1
    68     64     65   2
    69     65     60   1
    70     62     66   1
    71     63     67   1
    72     65     68   1
    73     31     60   1
