# Produced with molli package
@<TRIPOS>MOLECULE
J_4_S
75 80 0 0 0
SMALL
USER_CHARGES

@<TRIPOS>ATOM
     1 C      -5.184238     4.287889    -0.621084 C          1 UNL1 0.000
     2 C      -5.793871     3.189816    -0.023300 C          1 UNL1 0.000
     3 C      -5.157450     1.941512    -0.022715 C          1 UNL1 0.000
     4 C      -3.926703     1.744026    -0.670642 C          1 UNL1 0.000
     5 C      -3.316271     2.886673    -1.231921 C          1 UNL1 0.000
     6 C      -3.933514     4.141554    -1.207120 C          1 UNL1 0.000
     7 N      -3.276941     0.449112    -0.749025 N          1 UNL1 0.000
     8 C      -3.971955    -0.826430    -0.813489 C          1 UNL1 0.000
     9 C      -5.344143    -0.932424    -1.098659 C          1 UNL1 0.000
    10 C      -6.015160    -2.162787    -1.059630 C          1 UNL1 0.000
    11 C      -5.313352    -3.353632    -0.847032 C          1 UNL1 0.000
    12 C      -3.930845    -3.285526    -0.661032 C          1 UNL1 0.000
    13 C      -3.280995    -2.043396    -0.616282 C          1 UNL1 0.000
    14 N      -6.001967    -4.618697    -0.831153 N          1 UNL1 0.000
    15 C      -6.425001    -5.136838     0.462578 C          1 UNL1 0.000
    16 C      -5.741146    -4.793481     1.649165 C          1 UNL1 0.000
    17 C      -6.128401    -5.287216     2.901369 C          1 UNL1 0.000
    18 C      -7.217323    -6.141861     3.005876 C          1 UNL1 0.000
    19 C      -7.936282    -6.472683     1.863302 C          1 UNL1 0.000
    20 C      -7.558650    -5.956501     0.615250 C          1 UNL1 0.000
    21 C      -6.329055    -5.240398    -2.105635 C          1 UNL1 0.000
    22 C      -6.595869    -6.616497    -2.226244 C          1 UNL1 0.000
    23 C      -6.989916    -7.188738    -3.444403 C          1 UNL1 0.000
    24 C      -7.074098    -6.408206    -4.591606 C          1 UNL1 0.000
    25 C      -6.735983    -5.063928    -4.526245 C          1 UNL1 0.000
    26 C      -6.360746    -4.494495    -3.303817 C          1 UNL1 0.000
    27 C      -1.834899     0.443694    -0.745971 C          1 UNL1 0.000
    28 C      -1.122750     0.315298    -1.946719 C          1 UNL1 0.000
    29 C       0.266549     0.343417    -1.922035 C          1 UNL1 0.000
    30 C       0.960108     0.417591    -0.714755 C          1 UNL1 0.000
    31 C       0.267425     0.524097     0.499509 C          1 UNL1 0.000
    32 C      -1.134820     0.563110     0.469606 C          1 UNL1 0.000
    33 O       0.972293     0.232593    -3.087777 O          1 UNL1 0.000
    34 C       1.270240     1.529308    -3.609107 C          1 UNL1 0.000
    35 H      -5.676565     5.256594    -0.619991 H          1 UNL1 0.000
    36 H      -6.766094     3.301199     0.450123 H          1 UNL1 0.000
    37 H      -5.643706     1.127406     0.507563 H          1 UNL1 0.000
    38 H      -2.348348     2.816374    -1.720158 H          1 UNL1 0.000
    39 H      -3.436153     4.997375    -1.655877 H          1 UNL1 0.000
    40 H      -5.933326    -0.062416    -1.369251 H          1 UNL1 0.000
    41 H      -7.088404    -2.195032    -1.232561 H          1 UNL1 0.000
    42 H      -3.357827    -4.198240    -0.516109 H          1 UNL1 0.000
    43 H      -2.212198    -2.055829    -0.418137 H          1 UNL1 0.000
    44 H      -4.879449    -4.133886     1.630597 H          1 UNL1 0.000
    45 H      -5.572330    -4.999570     3.790140 H          1 UNL1 0.000
    46 H      -7.512773    -6.535067     3.974779 H          1 UNL1 0.000
    47 H      -8.802011    -7.125675     1.938694 H          1 UNL1 0.000
    48 H      -8.191765    -6.195948    -0.234037 H          1 UNL1 0.000
    49 H      -6.492886    -7.279316    -1.371564 H          1 UNL1 0.000
    50 H      -7.226359    -8.248535    -3.492785 H          1 UNL1 0.000
    51 H      -7.383295    -6.848021    -5.535693 H          1 UNL1 0.000
    52 H      -6.765601    -4.447155    -5.420842 H          1 UNL1 0.000
    53 H      -6.105632    -3.439800    -3.319196 H          1 UNL1 0.000
    54 H      -1.653512     0.212704    -2.888360 H          1 UNL1 0.000
    55 H       2.047411     0.388503    -0.723838 H          1 UNL1 0.000
    56 H      -1.697858     0.644021     1.397618 H          1 UNL1 0.000
    57 H       2.173700     1.446093    -4.220641 H          1 UNL1 0.000
    58 H       1.462164     2.273911    -2.826758 H          1 UNL1 0.000
    59 H       0.449116     1.866624    -4.249504 H          1 UNL1 0.000
    60 C       1.003024     0.548971     1.765818 C          1 UNL1 0.000
    61 C       1.576706    -0.625273     2.269974 C          1 UNL1 0.000
    62 C       2.308312    -0.610353     3.460723 C          1 UNL1 0.000
    63 C       2.489705     0.581018     4.177514 C          1 UNL1 0.000
    64 C       1.912972     1.755778     3.682195 C          1 UNL1 0.000
    65 C       1.174578     1.736373     2.488867 C          1 UNL1 0.000
    66 C       3.300302     0.512642     5.434207 C          1 UNL1 0.000
    67 C       3.595137     1.746084     6.247848 C          1 UNL1 0.000
    68 O       3.743385    -0.577612     5.803551 O          1 UNL1 0.000
    69 H       1.458106    -1.565706     1.734121 H          1 UNL1 0.000
    70 H       2.741557    -1.542071     3.822110 H          1 UNL1 0.000
    71 H       2.013826     2.709168     4.188019 H          1 UNL1 0.000
    72 H       0.741868     2.664181     2.117558 H          1 UNL1 0.000
    73 H       3.228956     1.586796     7.266469 H          1 UNL1 0.000
    74 H       3.135074     2.655391     5.868782 H          1 UNL1 0.000
    75 H       4.678190     1.899212     6.269491 H          1 UNL1 0.000
@<TRIPOS>BOND
     1      1      2   2
     2      2      3   1
     3      3      4   2
     4      4      5   1
     5      5      6   2
     6      6      1   1
     7      4      7   1
     8      7      8   1
     9      8      9   2
    10      9     10   1
    11     10     11   2
    12     11     12   1
    13     12     13   2
    14     13      8   1
    15     25     26   2
    16     24     25   1
    17     23     24   2
    18     22     23   1
    19     21     22   2
    20     21     26   1
    21     19     20   2
    22     18     19   1
    23     17     18   2
    24     16     17   1
    25     15     16   2
    26     15     20   1
    27     14     15   1
    28     14     21   1
    29     11     14   1
    30     27     28   2
    31     28     29   1
    32     29     30   2
    33     30     31   1
    34     31     32   2
    35     32     27   1
    36     33     34   1
    37     29     33   1
    38      7     27   1
    39      1     35   1
    40      2     36   1
    41      3     37   1
    42      5     38   1
    43      6     39   1
    44      9     40   1
    45     10     41   1
    46     12     42   1
    47     13     43   1
    48     16     44   1
    49     17     45   1
    50     18     46   1
    51     19     47   1
    52     20     48   1
    53     22     49   1
    54     23     50   1
    55     24     51   1
    56     25     52   1
    57     26     53   1
    58     28     54   1
    59     30     55   1
    60     32     56   1
    61     34     57   1
    62     34     58   1
    63     34     59   1
    64     60     61   2
    65     61     62   1
    66     62     63   2
    67     63     64   1
    68     64     65   2
    69     65     60   1
    70     63     66   1
    71     66     67   1
    72     66     68   2
    73     61     69   1
    74     62     70   1
    75     64     71   1
    76     65     72   1
    77     67     73   1
    78     67     74   1
    79     67     75   1
    80     31     60   1
