# Produced with molli package
@<TRIPOS>MOLECULE
J_4_O
69 74 0 0 0
SMALL
USER_CHARGES

@<TRIPOS>ATOM
     1 C      -5.151175     4.257442    -0.510050 C          1 UNL1 0.000
     2 C      -5.799495     3.139359     0.004118 C          1 UNL1 0.000
     3 C      -5.179118     1.883300    -0.030099 C          1 UNL1 0.000
     4 C      -3.920734     1.700783    -0.627401 C          1 UNL1 0.000
     5 C      -3.275027     2.862177    -1.106914 C          1 UNL1 0.000
     6 C      -3.878445     4.122712    -1.048748 C          1 UNL1 0.000
     7 N      -3.280185     0.401590    -0.727253 N          1 UNL1 0.000
     8 C      -3.983891    -0.864658    -0.807701 C          1 UNL1 0.000
     9 C      -5.330400    -0.960548    -1.198419 C          1 UNL1 0.000
    10 C      -6.021426    -2.180449    -1.168757 C          1 UNL1 0.000
    11 C      -5.359169    -3.370116    -0.847086 C          1 UNL1 0.000
    12 C      -3.992165    -3.311683    -0.564422 C          1 UNL1 0.000
    13 C      -3.326552    -2.079396    -0.517636 C          1 UNL1 0.000
    14 N      -6.068281    -4.621799    -0.811570 N          1 UNL1 0.000
    15 C      -6.538930    -5.103168     0.476877 C          1 UNL1 0.000
    16 C      -5.836864    -4.835907     1.669397 C          1 UNL1 0.000
    17 C      -6.268903    -5.327829     2.907057 C          1 UNL1 0.000
    18 C      -7.426573    -6.091323     2.988199 C          1 UNL1 0.000
    19 C      -8.167252    -6.335176     1.837014 C          1 UNL1 0.000
    20 C      -7.738099    -5.830357     0.602524 C          1 UNL1 0.000
    21 C      -6.319364    -5.322196    -2.060053 C          1 UNL1 0.000
    22 C      -6.555811    -6.710064    -2.098093 C          1 UNL1 0.000
    23 C      -6.848569    -7.377040    -3.294752 C          1 UNL1 0.000
    24 C      -6.871555    -6.679046    -4.496367 C          1 UNL1 0.000
    25 C      -6.580532    -5.320964    -4.502664 C          1 UNL1 0.000
    26 C      -6.300331    -4.656330    -3.302487 C          1 UNL1 0.000
    27 C      -1.840379     0.382138    -0.751222 C          1 UNL1 0.000
    28 C      -1.159068     0.304049    -1.971124 C          1 UNL1 0.000
    29 C       0.227953     0.400259    -1.987866 C          1 UNL1 0.000
    30 C       0.956899     0.489267    -0.802401 C          1 UNL1 0.000
    31 C       0.294445     0.525585     0.435493 C          1 UNL1 0.000
    32 C      -1.110049     0.488187     0.444376 C          1 UNL1 0.000
    33 O       0.867857     0.376611    -3.196534 O          1 UNL1 0.000
    34 C       1.190140     1.706826    -3.607037 C          1 UNL1 0.000
    35 H      -5.630628     5.231979    -0.479739 H          1 UNL1 0.000
    36 H      -6.789457     3.240649     0.441402 H          1 UNL1 0.000
    37 H      -5.699279     1.051192     0.435852 H          1 UNL1 0.000
    38 H      -2.285948     2.806255    -1.552634 H          1 UNL1 0.000
    39 H      -3.351306     4.992354    -1.432095 H          1 UNL1 0.000
    40 H      -5.876704    -0.087087    -1.541246 H          1 UNL1 0.000
    41 H      -7.078124    -2.203789    -1.424070 H          1 UNL1 0.000
    42 H      -3.444781    -4.223993    -0.339997 H          1 UNL1 0.000
    43 H      -2.277307    -2.094356    -0.231962 H          1 UNL1 0.000
    44 H      -4.921883    -4.253141     1.665503 H          1 UNL1 0.000
    45 H      -5.691525    -5.113753     3.802987 H          1 UNL1 0.000
    46 H      -7.755481    -6.483672     3.946591 H          1 UNL1 0.000
    47 H      -9.084374    -6.915408     1.895005 H          1 UNL1 0.000
    48 H      -8.368544    -6.007284    -0.265085 H          1 UNL1 0.000
    49 H      -6.502703    -7.305995    -1.190807 H          1 UNL1 0.000
    50 H      -7.051649    -8.444645    -3.282649 H          1 UNL1 0.000
    51 H      -7.098981    -7.193428    -5.425896 H          1 UNL1 0.000
    52 H      -6.570626    -4.768880    -5.438978 H          1 UNL1 0.000
    53 H      -6.077413    -3.596481    -3.370483 H          1 UNL1 0.000
    54 H      -1.712674     0.214651    -2.900724 H          1 UNL1 0.000
    55 H       2.043214     0.509582    -0.841496 H          1 UNL1 0.000
    56 H      -1.644313     0.525885     1.392478 H          1 UNL1 0.000
    57 H       2.177192     1.983557    -3.223568 H          1 UNL1 0.000
    58 H       0.444139     2.445207    -3.286926 H          1 UNL1 0.000
    59 H       1.227138     1.721918    -4.700392 H          1 UNL1 0.000
    60 C       1.043442     0.594343     1.690526 C          1 UNL1 0.000
    61 N       1.027179    -0.533065     2.444669 N          1 UNL1 0.000
    62 C       1.719995    -0.514964     3.603174 C          1 UNL1 0.000
    63 C       2.425982     0.583341     4.063909 C          1 UNL1 0.000
    64 C       2.423386     1.735968     3.286428 C          1 UNL1 0.000
    65 C       1.727180     1.743290     2.081224 C          1 UNL1 0.000
    66 H       1.692639    -1.440767     4.171839 H          1 UNL1 0.000
    67 H       2.962270     0.542037     5.004460 H          1 UNL1 0.000
    68 H       2.958761     2.621349     3.616911 H          1 UNL1 0.000
    69 H       1.709899     2.635187     1.462541 H          1 UNL1 0.000
@<TRIPOS>BOND
     1      1      2   2
     2      2      3   1
     3      3      4   2
     4      4      5   1
     5      5      6   2
     6      6      1   1
     7      4      7   1
     8      7      8   1
     9      8      9   2
    10      9     10   1
    11     10     11   2
    12     11     12   1
    13     12     13   2
    14     13      8   1
    15     25     26   2
    16     24     25   1
    17     23     24   2
    18     22     23   1
    19     21     22   2
    20     21     26   1
    21     19     20   2
    22     18     19   1
    23     17     18   2
    24     16     17   1
    25     15     16   2
    26     15     20   1
    27     14     15   1
    28     14     21   1
    29     11     14   1
    30     27     28   2
    31     28     29   1
    32     29     30   2
    33     30     31   1
    34     31     32   2
    35     32     27   1
    36     33     34   1
    37     29     33   1
    38      7     27   1
    39      1     35   1
    40      2     36   1
    41      3     37   1
    42      5     38   1
    43      6     39   1
    44      9     40   1
    45     10     41   1
    46     12     42   1
    47     13     43   1
    48     16     44   1
    49     17     45   1
    50     18     46   1
    51     19     47   1
    52     20     48   1
    53     22     49   1
    54     23     50   1
    55     24     51   1
    56     25     52   1
    57     26     53   1
    58     28     54   1
    59     30     55   1
    60     32     56   1
    61     34     57   1
    62     34     58   1
    63     34     59   1
    64     60     61   2
    65     61     62   1
    66     62     63   2
    67     63     64   1
    68     64     65   2
    69     65     60   1
    70     62     66   1
    71     63     67   1
    72     64     68   1
    73     65     69   1
    74     31     60   1
