# Produced with molli package
@<TRIPOS>MOLECULE
J_4_T
73 78 0 0 0
SMALL
USER_CHARGES

@<TRIPOS>ATOM
     1 C      -5.273827     4.224534    -0.163084 C          1 UNL1 0.000
     2 C      -5.768849     3.095076     0.482701 C          1 UNL1 0.000
     3 C      -5.126470     1.860543     0.333913 C          1 UNL1 0.000
     4 C      -3.998401     1.720468    -0.491806 C          1 UNL1 0.000
     5 C      -3.500639     2.886058    -1.108743 C          1 UNL1 0.000
     6 C      -4.131210     4.123434    -0.948906 C          1 UNL1 0.000
     7 N      -3.342257     0.446912    -0.691907 N          1 UNL1 0.000
     8 C      -4.043060    -0.818978    -0.784871 C          1 UNL1 0.000
     9 C      -5.421946    -0.895373    -1.050969 C          1 UNL1 0.000
    10 C      -6.104945    -2.119016    -1.047652 C          1 UNL1 0.000
    11 C      -5.413216    -3.319753    -0.863532 C          1 UNL1 0.000
    12 C      -4.027649    -3.273939    -0.689013 C          1 UNL1 0.000
    13 C      -3.360296    -2.043659    -0.628188 C          1 UNL1 0.000
    14 N      -6.113510    -4.573552    -0.831816 N          1 UNL1 0.000
    15 C      -6.578244    -5.073661     0.447156 C          1 UNL1 0.000
    16 C      -5.925426    -4.745370     1.650589 C          1 UNL1 0.000
    17 C      -6.363462    -5.240038     2.884125 C          1 UNL1 0.000
    18 C      -7.479453    -6.068416     2.945618 C          1 UNL1 0.000
    19 C      -8.164508    -6.384128     1.778463 C          1 UNL1 0.000
    20 C      -7.727040    -5.883304     0.546403 C          1 UNL1 0.000
    21 C      -6.329364    -5.280093    -2.076150 C          1 UNL1 0.000
    22 C      -6.345630    -6.687990    -2.125058 C          1 UNL1 0.000
    23 C      -6.589946    -7.373774    -3.320286 C          1 UNL1 0.000
    24 C      -6.799868    -6.669362    -4.499962 C          1 UNL1 0.000
    25 C      -6.748329    -5.278749    -4.489172 C          1 UNL1 0.000
    26 C      -6.507113    -4.595720    -3.292246 C          1 UNL1 0.000
    27 C      -1.904510     0.454102    -0.750104 C          1 UNL1 0.000
    28 C      -1.243833     0.341268    -1.978793 C          1 UNL1 0.000
    29 C       0.145032     0.395230    -2.022540 C          1 UNL1 0.000
    30 C       0.890456     0.463426    -0.843574 C          1 UNL1 0.000
    31 C       0.250656     0.545734     0.403398 C          1 UNL1 0.000
    32 C      -1.152592     0.572072     0.432178 C          1 UNL1 0.000
    33 O       0.737966     0.328852    -3.254447 O          1 UNL1 0.000
    34 C       1.526684     1.490819    -3.514648 C          1 UNL1 0.000
    35 H      -5.772861     5.183033    -0.048211 H          1 UNL1 0.000
    36 H      -6.654732     3.171862     1.107679 H          1 UNL1 0.000
    37 H      -5.516123     1.007403     0.883432 H          1 UNL1 0.000
    38 H      -2.621117     2.840935    -1.745496 H          1 UNL1 0.000
    39 H      -3.730001     5.002657    -1.446149 H          1 UNL1 0.000
    40 H      -5.999534    -0.001300    -1.266894 H          1 UNL1 0.000
    41 H      -7.180297    -2.134379    -1.206532 H          1 UNL1 0.000
    42 H      -3.467471    -4.196499    -0.558088 H          1 UNL1 0.000
    43 H      -2.290302    -2.067767    -0.438206 H          1 UNL1 0.000
    44 H      -5.045629    -4.107771     1.654199 H          1 UNL1 0.000
    45 H      -5.828411    -4.977136     3.792259 H          1 UNL1 0.000
    46 H      -7.817241    -6.456833     3.902521 H          1 UNL1 0.000
    47 H      -9.047517    -7.017547     1.820775 H          1 UNL1 0.000
    48 H      -8.310305    -6.122472    -0.338280 H          1 UNL1 0.000
    49 H      -6.153691    -7.270379    -1.228026 H          1 UNL1 0.000
    50 H      -6.611216    -8.461011    -3.324694 H          1 UNL1 0.000
    51 H      -6.993429    -7.199662    -5.428385 H          1 UNL1 0.000
    52 H      -6.898726    -4.720307    -5.408738 H          1 UNL1 0.000
    53 H      -6.484113    -3.510337    -3.330738 H          1 UNL1 0.000
    54 H      -1.815020     0.248082    -2.897928 H          1 UNL1 0.000
    55 H       1.976419     0.443183    -0.889369 H          1 UNL1 0.000
    56 H      -1.675480     0.638947     1.384623 H          1 UNL1 0.000
    57 H       2.486320     1.436353    -2.991183 H          1 UNL1 0.000
    58 H       0.994066     2.410986    -3.245516 H          1 UNL1 0.000
    59 H       1.729548     1.523807    -4.589260 H          1 UNL1 0.000
    60 C       1.030532     0.572440     1.647222 C          1 UNL1 0.000
    61 C       1.817415    -0.528478     2.020052 C          1 UNL1 0.000
    62 C       2.557827    -0.517306     3.206039 C          1 UNL1 0.000
    63 C       2.525564     0.597061     4.049038 C          1 UNL1 0.000
    64 C       1.751934     1.703241     3.680409 C          1 UNL1 0.000
    65 C       1.007995     1.687975     2.495673 C          1 UNL1 0.000
    66 C       3.332092     0.628980     5.313269 C          1 UNL1 0.000
    67 H       1.849255    -1.414159     1.388160 H          1 UNL1 0.000
    68 H       3.154766    -1.388686     3.465413 H          1 UNL1 0.000
    69 H       1.722014     2.586273     4.314897 H          1 UNL1 0.000
    70 H       0.414019     2.561047     2.233159 H          1 UNL1 0.000
    71 H       2.714405     0.968151     6.151291 H          1 UNL1 0.000
    72 H       4.184628     1.305497     5.197670 H          1 UNL1 0.000
    73 H       3.714639    -0.364905     5.568622 H          1 UNL1 0.000
@<TRIPOS>BOND
     1      1      2   2
     2      2      3   1
     3      3      4   2
     4      4      5   1
     5      5      6   2
     6      6      1   1
     7      4      7   1
     8      7      8   1
     9      8      9   2
    10      9     10   1
    11     10     11   2
    12     11     12   1
    13     12     13   2
    14     13      8   1
    15     25     26   2
    16     24     25   1
    17     23     24   2
    18     22     23   1
    19     21     22   2
    20     21     26   1
    21     19     20   2
    22     18     19   1
    23     17     18   2
    24     16     17   1
    25     15     16   2
    26     15     20   1
    27     14     15   1
    28     14     21   1
    29     11     14   1
    30     27     28   2
    31     28     29   1
    32     29     30   2
    33     30     31   1
    34     31     32   2
    35     32     27   1
    36     33     34   1
    37     29     33   1
    38      7     27   1
    39      1     35   1
    40      2     36   1
    41      3     37   1
    42      5     38   1
    43      6     39   1
    44      9     40   1
    45     10     41   1
    46     12     42   1
    47     13     43   1
    48     16     44   1
    49     17     45   1
    50     18     46   1
    51     19     47   1
    52     20     48   1
    53     22     49   1
    54     23     50   1
    55     24     51   1
    56     25     52   1
    57     26     53   1
    58     28     54   1
    59     30     55   1
    60     32     56   1
    61     34     57   1
    62     34     58   1
    63     34     59   1
    64     60     61   2
    65     61     62   1
    66     62     63   2
    67     63     64   1
    68     64     65   2
    69     65     60   1
    70     63     66   1
    71     61     67   1
    72     62     68   1
    73     64     69   1
    74     65     70   1
    75     66     71   1
    76     66     72   1
    77     66     73   1
    78     31     60   1
