# Produced with molli package
@<TRIPOS>MOLECULE
J_4_M
71 76 0 0 0
SMALL
USER_CHARGES

@<TRIPOS>ATOM
     1 C      -5.078303     4.263245    -0.694569 C          1 UNL1 0.000
     2 C      -5.809083     3.148001    -0.299605 C          1 UNL1 0.000
     3 C      -5.208025     1.881397    -0.263626 C          1 UNL1 0.000
     4 C      -3.881846     1.682616    -0.681816 C          1 UNL1 0.000
     5 C      -3.158143     2.844453    -1.038146 C          1 UNL1 0.000
     6 C      -3.743045     4.115272    -1.041672 C          1 UNL1 0.000
     7 N      -3.251657     0.372433    -0.724142 N          1 UNL1 0.000
     8 C      -3.959417    -0.892559    -0.815950 C          1 UNL1 0.000
     9 C      -5.255927    -1.005373    -1.347113 C          1 UNL1 0.000
    10 C      -5.950549    -2.224950    -1.347848 C          1 UNL1 0.000
    11 C      -5.347822    -3.391757    -0.862806 C          1 UNL1 0.000
    12 C      -4.026221    -3.319422    -0.411831 C          1 UNL1 0.000
    13 C      -3.348536    -2.092453    -0.389850 C          1 UNL1 0.000
    14 N      -6.069546    -4.642612    -0.841760 N          1 UNL1 0.000
    15 C      -6.350068    -5.248085     0.452835 C          1 UNL1 0.000
    16 C      -6.301512    -4.474778     1.635797 C          1 UNL1 0.000
    17 C      -6.584075    -5.018466     2.894904 C          1 UNL1 0.000
    18 C      -6.952648    -6.351886     3.008181 C          1 UNL1 0.000
    19 C      -6.991241    -7.147628     1.868817 C          1 UNL1 0.000
    20 C      -6.660948    -6.609592     0.615487 C          1 UNL1 0.000
    21 C      -6.470088    -5.203170    -2.121771 C          1 UNL1 0.000
    22 C      -7.580435    -6.049494    -2.278247 C          1 UNL1 0.000
    23 C      -7.899713    -6.619424    -3.519198 C          1 UNL1 0.000
    24 C      -7.153950    -6.304713    -4.650526 C          1 UNL1 0.000
    25 C      -6.090574    -5.418506    -4.543167 C          1 UNL1 0.000
    26 C      -5.748973    -4.886432    -3.295521 C          1 UNL1 0.000
    27 C      -1.810386     0.336615    -0.736097 C          1 UNL1 0.000
    28 C      -1.126157     0.221960    -1.952353 C          1 UNL1 0.000
    29 C       0.260796     0.309657    -1.970240 C          1 UNL1 0.000
    30 C       0.986377     0.419789    -0.784135 C          1 UNL1 0.000
    31 C       0.321441     0.492114     0.450423 C          1 UNL1 0.000
    32 C      -1.082778     0.477486     0.459638 C          1 UNL1 0.000
    33 O       0.897210     0.245307    -3.178912 O          1 UNL1 0.000
    34 C       1.330193     1.545359    -3.584971 C          1 UNL1 0.000
    35 H      -5.543255     5.244976    -0.718820 H          1 UNL1 0.000
    36 H      -6.851127     3.259599    -0.010712 H          1 UNL1 0.000
    37 H      -5.805989     1.057428     0.113393 H          1 UNL1 0.000
    38 H      -2.114435     2.785894    -1.334456 H          1 UNL1 0.000
    39 H      -3.150944     4.981724    -1.324514 H          1 UNL1 0.000
    40 H      -5.757490    -0.147647    -1.785384 H          1 UNL1 0.000
    41 H      -6.971335    -2.260115    -1.721713 H          1 UNL1 0.000
    42 H      -3.518791    -4.220249    -0.074866 H          1 UNL1 0.000
    43 H      -2.328515    -2.096813    -0.014737 H          1 UNL1 0.000
    44 H      -6.045506    -3.418682     1.600762 H          1 UNL1 0.000
    45 H      -6.522039    -4.391246     3.780532 H          1 UNL1 0.000
    46 H      -7.197780    -6.771001     3.980419 H          1 UNL1 0.000
    47 H      -7.270974    -8.195069     1.951009 H          1 UNL1 0.000
    48 H      -6.643738    -7.293737    -0.227029 H          1 UNL1 0.000
    49 H      -8.232989    -6.275998    -1.440402 H          1 UNL1 0.000
    50 H      -8.739606    -7.304948    -3.599539 H          1 UNL1 0.000
    51 H      -7.406525    -6.739534    -5.613805 H          1 UNL1 0.000
    52 H      -5.515810    -5.142175    -5.423268 H          1 UNL1 0.000
    53 H      -4.892014    -4.217887    -3.256394 H          1 UNL1 0.000
    54 H      -1.678465     0.117272    -2.881660 H          1 UNL1 0.000
    55 H       2.072906     0.442351    -0.821267 H          1 UNL1 0.000
    56 H      -1.624136     0.552786     1.400971 H          1 UNL1 0.000
    57 H       2.333776     1.742662    -3.195432 H          1 UNL1 0.000
    58 H       0.641697     2.339971    -3.271157 H          1 UNL1 0.000
    59 H       1.376656     1.556717    -4.678207 H          1 UNL1 0.000
    60 C       1.082939     0.551252     1.701539 C          1 UNL1 0.000
    61 C       1.672092    -0.611570     2.223406 C          1 UNL1 0.000
    62 C       2.415628    -0.571673     3.406675 C          1 UNL1 0.000
    63 C       2.583796     0.637153     4.086196 C          1 UNL1 0.000
    64 C       1.998675     1.801918     3.580024 C          1 UNL1 0.000
    65 C       1.250965     1.757411     2.397155 C          1 UNL1 0.000
    66 C       3.356798     0.680764     5.294388 C          1 UNL1 0.000
    67 N       3.984391     0.713283     6.268130 N          1 UNL1 0.000
    68 H       1.550569    -1.561640     1.704907 H          1 UNL1 0.000
    69 H       2.860957    -1.488874     3.787810 H          1 UNL1 0.000
    70 H       2.121892     2.751229     4.098397 H          1 UNL1 0.000
    71 H       0.805700     2.674419     2.014992 H          1 UNL1 0.000
@<TRIPOS>BOND
     1      1      2   2
     2      2      3   1
     3      3      4   2
     4      4      5   1
     5      5      6   2
     6      6      1   1
     7      4      7   1
     8      7      8   1
     9      8      9   2
    10      9     10   1
    11     10     11   2
    12     11     12   1
    13     12     13   2
    14     13      8   1
    15     25     26   2
    16     24     25   1
    17     23     24   2
    18     22     23   1
    19     21     22   2
    20     21     26   1
    21     19     20   2
    22     18     19   1
    23     17     18   2
    24     16     17   1
    25     15     16   2
    26     15     20   1
    27     14     15   1
    28     14     21   1
    29     11     14   1
    30     27     28   2
    31     28     29   1
    32     29     30   2
    33     30     31   1
    34     31     32   2
    35     32     27   1
    36     33     34   1
    37     29     33   1
    38      7     27   1
    39      1     35   1
    40      2     36   1
    41      3     37   1
    42      5     38   1
    43      6     39   1
    44      9     40   1
    45     10     41   1
    46     12     42   1
    47     13     43   1
    48     16     44   1
    49     17     45   1
    50     18     46   1
    51     19     47   1
    52     20     48   1
    53     22     49   1
    54     23     50   1
    55     24     51   1
    56     25     52   1
    57     26     53   1
    58     28     54   1
    59     30     55   1
    60     32     56   1
    61     34     57   1
    62     34     58   1
    63     34     59   1
    64     60     61   2
    65     61     62   1
    66     62     63   2
    67     63     64   1
    68     64     65   2
    69     65     60   1
    70     66     67   3
    71     63     66   1
    72     61     68   1
    73     62     69   1
    74     64     70   1
    75     65     71   1
    76     31     60   1
