# Produced with molli package
@<TRIPOS>MOLECULE
J_4_N
67 72 0 0 0
SMALL
USER_CHARGES

@<TRIPOS>ATOM
     1 C      -5.286918     4.197398    -0.532038 C          1 UNL1 0.000
     2 C      -5.913249     3.069335    -0.010741 C          1 UNL1 0.000
     3 C      -5.273732     1.824718    -0.053655 C          1 UNL1 0.000
     4 C      -4.004712     1.673715    -0.639734 C          1 UNL1 0.000
     5 C      -3.385741     2.838143    -1.138909 C          1 UNL1 0.000
     6 C      -4.018584     4.084035    -1.089009 C          1 UNL1 0.000
     7 N      -3.338245     0.390969    -0.700352 N          1 UNL1 0.000
     8 C      -4.038869    -0.872114    -0.749597 C          1 UNL1 0.000
     9 C      -5.276949    -1.007947    -1.401151 C          1 UNL1 0.000
    10 C      -5.957868    -2.232635    -1.424668 C          1 UNL1 0.000
    11 C      -5.413767    -3.365606    -0.804874 C          1 UNL1 0.000
    12 C      -4.165770    -3.250492    -0.181059 C          1 UNL1 0.000
    13 C      -3.486875    -2.027516    -0.164425 C          1 UNL1 0.000
    14 N      -6.119171    -4.622251    -0.798243 N          1 UNL1 0.000
    15 C      -6.397498    -5.239681     0.480797 C          1 UNL1 0.000
    16 C      -6.703105    -4.447363     1.605814 C          1 UNL1 0.000
    17 C      -6.974992    -5.022936     2.849974 C          1 UNL1 0.000
    18 C      -6.948423    -6.405985     2.996027 C          1 UNL1 0.000
    19 C      -6.636716    -7.210841     1.902868 C          1 UNL1 0.000
    20 C      -6.354139    -6.632781     0.659833 C          1 UNL1 0.000
    21 C      -6.526148    -5.213198    -2.055520 C          1 UNL1 0.000
    22 C      -7.643875    -6.061152    -2.152543 C          1 UNL1 0.000
    23 C      -8.022789    -6.629683    -3.374334 C          1 UNL1 0.000
    24 C      -7.306642    -6.342455    -4.532559 C          1 UNL1 0.000
    25 C      -6.208070    -5.492481    -4.469723 C          1 UNL1 0.000
    26 C      -5.819485    -4.941272    -3.244797 C          1 UNL1 0.000
    27 C      -1.901511     0.370287    -0.719110 C          1 UNL1 0.000
    28 C      -1.215998     0.232824    -1.933105 C          1 UNL1 0.000
    29 C       0.174007     0.285209    -1.950181 C          1 UNL1 0.000
    30 C       0.899812     0.366131    -0.762017 C          1 UNL1 0.000
    31 C       0.223161     0.468096     0.458637 C          1 UNL1 0.000
    32 C      -1.175265     0.507709     0.474970 C          1 UNL1 0.000
    33 O       0.804815     0.220732    -3.162982 O          1 UNL1 0.000
    34 C       1.397418     1.482117    -3.481489 C          1 UNL1 0.000
    35 H      -5.782687     5.163785    -0.497790 H          1 UNL1 0.000
    36 H      -6.899760     3.154991     0.437349 H          1 UNL1 0.000
    37 H      -5.778925     0.974698     0.397563 H          1 UNL1 0.000
    38 H      -2.400017     2.792714    -1.593625 H          1 UNL1 0.000
    39 H      -3.517089     4.961119    -1.489715 H          1 UNL1 0.000
    40 H      -5.726282    -0.160910    -1.913499 H          1 UNL1 0.000
    41 H      -6.925569    -2.295841    -1.916696 H          1 UNL1 0.000
    42 H      -3.709475    -4.119595     0.287212 H          1 UNL1 0.000
    43 H      -2.523453    -1.993056     0.336701 H          1 UNL1 0.000
    44 H      -6.747781    -3.364271     1.518138 H          1 UNL1 0.000
    45 H      -7.210009    -4.387545     3.699862 H          1 UNL1 0.000
    46 H      -7.165443    -6.855240     3.961620 H          1 UNL1 0.000
    47 H      -6.607075    -8.291398     2.016578 H          1 UNL1 0.000
    48 H      -6.083426    -7.284713    -0.166905 H          1 UNL1 0.000
    49 H      -8.249269    -6.280440    -1.276908 H          1 UNL1 0.000
    50 H      -8.883832    -7.291475    -3.418523 H          1 UNL1 0.000
    51 H      -7.605793    -6.777013    -5.482590 H          1 UNL1 0.000
    52 H      -5.646628    -5.257053    -5.370106 H          1 UNL1 0.000
    53 H      -4.941854    -4.298998    -3.231064 H          1 UNL1 0.000
    54 H      -1.769237     0.132425    -2.862722 H          1 UNL1 0.000
    55 H       1.985727     0.351761    -0.790206 H          1 UNL1 0.000
    56 H      -1.713751     0.602301     1.415452 H          1 UNL1 0.000
    57 H       2.318176     1.634307    -2.908956 H          1 UNL1 0.000
    58 H       0.701453     2.312754    -3.311111 H          1 UNL1 0.000
    59 H       1.655454     1.473901    -4.544580 H          1 UNL1 0.000
    60 C       0.964229     0.524756     1.707442 C          1 UNL1 0.000
    61 C       1.749374    -0.532927     2.122980 C          1 UNL1 0.000
    62 S       2.499603    -0.233704     3.632267 S          1 UNL1 0.000
    63 C       1.772873     1.310088     3.747983 C          1 UNL1 0.000
    64 C       0.971756     1.588620     2.661772 C          1 UNL1 0.000
    65 H       1.916806    -1.477127     1.621142 H          1 UNL1 0.000
    66 H       1.964932     1.936796     4.607775 H          1 UNL1 0.000
    67 H       0.423601     2.516502     2.552845 H          1 UNL1 0.000
@<TRIPOS>BOND
     1      1      2   2
     2      2      3   1
     3      3      4   2
     4      4      5   1
     5      5      6   2
     6      6      1   1
     7      4      7   1
     8      7      8   1
     9      8      9   2
    10      9     10   1
    11     10     11   2
    12     11     12   1
    13     12     13   2
    14     13      8   1
    15     25     26   2
    16     24     25   1
    17     23     24   2
    18     22     23   1
    19     21     22   2
    20     21     26   1
    21     19     20   2
    22     18     19   1
    23     17     18   2
    24     16     17   1
    25     15     16   2
    26     15     20   1
    27     14     15   1
    28     14     21   1
    29     11     14   1
    30     27     28   2
    31     28     29   1
    32     29     30   2
    33     30     31   1
    34     31     32   2
    35     32     27   1
    36     33     34   1
    37     29     33   1
    38      7     27   1
    39      1     35   1
    40      2     36   1
    41      3     37   1
    42      5     38   1
    43      6     39   1
    44      9     40   1
    45     10     41   1
    46     12     42   1
    47     13     43   1
    48     16     44   1
    49     17     45   1
    50     18     46   1
    51     19     47   1
    52     20     48   1
    53     22     49   1
    54     23     50   1
    55     24     51   1
    56     25     52   1
    57     26     53   1
    58     28     54   1
    59     30     55   1
    60     32     56   1
    61     34     57   1
    62     34     58   1
    63     34     59   1
    64     60     61   2
    65     61     62   1
    66     62     63   1
    67     63     64   2
    68     64     60   1
    69     61     65   1
    70     63     66   1
    71     64     67   1
    72     31     60   1
