# Produced with molli package
@<TRIPOS>MOLECULE
J_4_L
74 80 0 0 0
SMALL
USER_CHARGES

@<TRIPOS>ATOM
     1 C      -5.234719     4.222794    -0.536102 C          1 UNL1 0.000
     2 C      -5.863970     3.078517    -0.055270 C          1 UNL1 0.000
     3 C      -5.212795     1.839849    -0.108148 C          1 UNL1 0.000
     4 C      -3.929623     1.710398    -0.667802 C          1 UNL1 0.000
     5 C      -3.308159     2.891650    -1.123879 C          1 UNL1 0.000
     6 C      -3.951499     4.131678    -1.061669 C          1 UNL1 0.000
     7 N      -3.251077     0.434082    -0.746974 N          1 UNL1 0.000
     8 C      -3.936290    -0.836264    -0.836696 C          1 UNL1 0.000
     9 C      -5.175568    -0.970407    -1.486600 C          1 UNL1 0.000
    10 C      -5.849452    -2.199290    -1.527520 C          1 UNL1 0.000
    11 C      -5.297383    -3.337425    -0.925066 C          1 UNL1 0.000
    12 C      -4.038710    -3.229313    -0.322073 C          1 UNL1 0.000
    13 C      -3.367529    -2.001986    -0.288015 C          1 UNL1 0.000
    14 N      -6.017157    -4.585545    -0.897144 N          1 UNL1 0.000
    15 C      -6.314027    -5.180081     0.390600 C          1 UNL1 0.000
    16 C      -6.513683    -4.370820     1.527956 C          1 UNL1 0.000
    17 C      -6.807992    -4.924985     2.777198 C          1 UNL1 0.000
    18 C      -6.916460    -6.304170     2.917367 C          1 UNL1 0.000
    19 C      -6.711431    -7.127998     1.813947 C          1 UNL1 0.000
    20 C      -6.399806    -6.572175     0.567381 C          1 UNL1 0.000
    21 C      -6.435000    -5.182045    -2.147243 C          1 UNL1 0.000
    22 C      -7.609675    -5.948452    -2.250226 C          1 UNL1 0.000
    23 C      -7.988996    -6.539217    -3.460785 C          1 UNL1 0.000
    24 C      -7.214494    -6.354113    -4.602212 C          1 UNL1 0.000
    25 C      -6.062047    -5.578020    -4.534883 C          1 UNL1 0.000
    26 C      -5.676117    -5.001497    -3.320654 C          1 UNL1 0.000
    27 C      -1.813224     0.429639    -0.758948 C          1 UNL1 0.000
    28 C      -1.124149     0.297006    -1.970389 C          1 UNL1 0.000
    29 C       0.263910     0.366500    -1.983649 C          1 UNL1 0.000
    30 C       0.982635     0.463150    -0.791687 C          1 UNL1 0.000
    31 C       0.312576     0.558620     0.437749 C          1 UNL1 0.000
    32 C      -1.090666     0.577138     0.437695 C          1 UNL1 0.000
    33 O       0.895087     0.292305    -3.195664 O          1 UNL1 0.000
    34 C       1.542305     1.528875    -3.501838 C          1 UNL1 0.000
    35 H      -5.739185     5.184306    -0.493736 H          1 UNL1 0.000
    36 H      -6.862185     3.146790     0.369295 H          1 UNL1 0.000
    37 H      -5.721745     0.977413     0.313949 H          1 UNL1 0.000
    38 H      -2.310238     2.864754    -1.553147 H          1 UNL1 0.000
    39 H      -3.445991     5.021240    -1.428278 H          1 UNL1 0.000
    40 H      -5.635987    -0.116848    -1.977701 H          1 UNL1 0.000
    41 H      -6.823324    -2.258318    -2.007668 H          1 UNL1 0.000
    42 H      -3.574341    -4.104304     0.126636 H          1 UNL1 0.000
    43 H      -2.398993    -1.970271     0.203806 H          1 UNL1 0.000
    44 H      -6.456586    -3.287557     1.450460 H          1 UNL1 0.000
    45 H      -6.956333    -4.274461     3.635157 H          1 UNL1 0.000
    46 H      -7.155348    -6.735818     3.885693 H          1 UNL1 0.000
    47 H      -6.788445    -8.206865     1.921101 H          1 UNL1 0.000
    48 H      -6.212286    -7.245994    -0.264744 H          1 UNL1 0.000
    49 H      -8.255652    -6.086027    -1.386851 H          1 UNL1 0.000
    50 H      -8.893610    -7.139750    -3.509345 H          1 UNL1 0.000
    51 H      -7.510475    -6.809922    -5.543313 H          1 UNL1 0.000
    52 H      -5.455941    -5.422276    -5.423551 H          1 UNL1 0.000
    53 H      -4.758125    -4.418616    -3.298469 H          1 UNL1 0.000
    54 H      -1.673714     0.185738    -2.900517 H          1 UNL1 0.000
    55 H       2.069601     0.454163    -0.815116 H          1 UNL1 0.000
    56 H      -1.633816     0.664276     1.376990 H          1 UNL1 0.000
    57 H       2.470487     1.634525    -2.931144 H          1 UNL1 0.000
    58 H       0.883410     2.387179    -3.322170 H          1 UNL1 0.000
    59 H       1.797412     1.519478    -4.565688 H          1 UNL1 0.000
    60 C       1.066387     0.598371     1.695079 C          1 UNL1 0.000
    61 C       1.682505    -0.565631     2.179933 C          1 UNL1 0.000
    62 C       2.415631    -0.574828     3.371866 C          1 UNL1 0.000
    63 C       2.521599     0.630337     4.070607 C          1 UNL1 0.000
    64 C       1.927060     1.811914     3.628145 C          1 UNL1 0.000
    65 C       1.186432     1.792738     2.428200 C          1 UNL1 0.000
    66 N       3.171990     0.919892     5.248528 N          1 UNL1 0.000
    67 C       3.016275     2.243259     5.563131 C          1 UNL1 0.000
    68 C       2.247672     2.821389     4.577769 C          1 UNL1 0.000
    69 H       1.587333    -1.496093     1.621348 H          1 UNL1 0.000
    70 H       2.881132    -1.486678     3.731250 H          1 UNL1 0.000
    71 H       0.718642     2.706024     2.070425 H          1 UNL1 0.000
    72 H       3.691210     0.246524     5.796296 H          1 UNL1 0.000
    73 H       3.462591     2.657603     6.456678 H          1 UNL1 0.000
    74 H       1.947754     3.860097     4.540744 H          1 UNL1 0.000
@<TRIPOS>BOND
     1      1      2   2
     2      2      3   1
     3      3      4   2
     4      4      5   1
     5      5      6   2
     6      6      1   1
     7      4      7   1
     8      7      8   1
     9      8      9   2
    10      9     10   1
    11     10     11   2
    12     11     12   1
    13     12     13   2
    14     13      8   1
    15     25     26   2
    16     24     25   1
    17     23     24   2
    18     22     23   1
    19     21     22   2
    20     21     26   1
    21     19     20   2
    22     18     19   1
    23     17     18   2
    24     16     17   1
    25     15     16   2
    26     15     20   1
    27     14     15   1
    28     14     21   1
    29     11     14   1
    30     27     28   2
    31     28     29   1
    32     29     30   2
    33     30     31   1
    34     31     32   2
    35     32     27   1
    36     33     34   1
    37     29     33   1
    38      7     27   1
    39      1     35   1
    40      2     36   1
    41      3     37   1
    42      5     38   1
    43      6     39   1
    44      9     40   1
    45     10     41   1
    46     12     42   1
    47     13     43   1
    48     16     44   1
    49     17     45   1
    50     18     46   1
    51     19     47   1
    52     20     48   1
    53     22     49   1
    54     23     50   1
    55     24     51   1
    56     25     52   1
    57     26     53   1
    58     28     54   1
    59     30     55   1
    60     32     56   1
    61     34     57   1
    62     34     58   1
    63     34     59   1
    64     60     61   2
    65     61     62   1
    66     62     63   2
    67     63     64   1
    68     64     65   2
    69     65     60   1
    70     63     66   1
    71     66     67   1
    72     67     68   2
    73     68     64   1
    74     61     69   1
    75     62     70   1
    76     65     71   1
    77     66     72   1
    78     67     73   1
    79     68     74   1
    80     31     60   1
