# Produced with molli package
@<TRIPOS>MOLECULE
J_4_R
71 76 0 0 0
SMALL
USER_CHARGES

@<TRIPOS>ATOM
     1 C      -5.122925     4.209923    -0.440687 C          1 UNL1 0.000
     2 C      -5.688500     3.104876     0.188625 C          1 UNL1 0.000
     3 C      -5.066747     1.852383     0.110516 C          1 UNL1 0.000
     4 C      -3.890477     1.665567    -0.634110 C          1 UNL1 0.000
     5 C      -3.324882     2.810154    -1.235419 C          1 UNL1 0.000
     6 C      -3.931419     4.066327    -1.140971 C          1 UNL1 0.000
     7 N      -3.247165     0.373250    -0.761608 N          1 UNL1 0.000
     8 C      -3.954376    -0.891279    -0.826811 C          1 UNL1 0.000
     9 C      -5.327258    -0.973413    -1.119075 C          1 UNL1 0.000
    10 C      -6.014916    -2.194799    -1.092415 C          1 UNL1 0.000
    11 C      -5.332193    -3.394133    -0.865464 C          1 UNL1 0.000
    12 C      -3.950431    -3.345066    -0.666290 C          1 UNL1 0.000
    13 C      -3.280846    -2.114475    -0.622608 C          1 UNL1 0.000
    14 N      -6.036864    -4.646179    -0.838528 N          1 UNL1 0.000
    15 C      -6.502831    -5.138719     0.443642 C          1 UNL1 0.000
    16 C      -5.762240    -4.937633     1.624399 C          1 UNL1 0.000
    17 C      -6.201596    -5.430659     2.858423 C          1 UNL1 0.000
    18 C      -7.401828    -6.126853     2.944422 C          1 UNL1 0.000
    19 C      -8.171927    -6.311777     1.801007 C          1 UNL1 0.000
    20 C      -7.733115    -5.811666     0.569297 C          1 UNL1 0.000
    21 C      -6.322542    -5.324614    -2.088073 C          1 UNL1 0.000
    22 C      -6.524329    -6.717700    -2.137928 C          1 UNL1 0.000
    23 C      -6.843711    -7.372088    -3.333664 C          1 UNL1 0.000
    24 C      -6.939239    -6.652267    -4.519279 C          1 UNL1 0.000
    25 C      -6.695088    -5.284104    -4.511744 C          1 UNL1 0.000
    26 C      -6.381360    -4.632341    -3.313302 C          1 UNL1 0.000
    27 C      -1.807849     0.365951    -0.777003 C          1 UNL1 0.000
    28 C      -1.112101     0.276839    -1.987517 C          1 UNL1 0.000
    29 C       0.274671     0.372165    -1.989050 C          1 UNL1 0.000
    30 C       0.987805     0.472109    -0.792789 C          1 UNL1 0.000
    31 C       0.313662     0.522315     0.438608 C          1 UNL1 0.000
    32 C      -1.090833     0.483799     0.426605 C          1 UNL1 0.000
    33 O       0.924117     0.317161    -3.192323 O          1 UNL1 0.000
    34 C       1.443645     1.602461    -3.536720 C          1 UNL1 0.000
    35 H      -5.604442     5.182073    -0.377846 H          1 UNL1 0.000
    36 H      -6.613646     3.214922     0.748519 H          1 UNL1 0.000
    37 H      -5.512970     1.025029     0.655990 H          1 UNL1 0.000
    38 H      -2.404640     2.737818    -1.808150 H          1 UNL1 0.000
    39 H      -3.472410     4.926092    -1.621902 H          1 UNL1 0.000
    40 H      -5.898427    -0.087445    -1.379476 H          1 UNL1 0.000
    41 H      -7.086648    -2.211135    -1.275101 H          1 UNL1 0.000
    42 H      -3.392210    -4.264874    -0.509973 H          1 UNL1 0.000
    43 H      -2.214360    -2.138595    -0.412209 H          1 UNL1 0.000
    44 H      -4.813900    -4.410215     1.607007 H          1 UNL1 0.000
    45 H      -5.598753    -5.270375     3.748726 H          1 UNL1 0.000
    46 H      -7.739525    -6.515577     3.901332 H          1 UNL1 0.000
    47 H      -9.118931    -6.841269     1.863558 H          1 UNL1 0.000
    48 H      -8.377920    -5.943817    -0.295999 H          1 UNL1 0.000
    49 H      -6.422981    -7.321832    -1.239716 H          1 UNL1 0.000
    50 H      -7.012613    -8.445672    -3.334018 H          1 UNL1 0.000
    51 H      -7.190429    -7.156898    -5.448132 H          1 UNL1 0.000
    52 H      -6.749574    -4.715026    -5.436250 H          1 UNL1 0.000
    53 H      -6.201288    -3.563188    -3.363577 H          1 UNL1 0.000
    54 H      -1.654726     0.173918    -2.922635 H          1 UNL1 0.000
    55 H       2.074562     0.478497    -0.822894 H          1 UNL1 0.000
    56 H      -1.640003     0.528691     1.366147 H          1 UNL1 0.000
    57 H       2.330958     1.835859    -2.939113 H          1 UNL1 0.000
    58 H       0.688426     2.389087    -3.420501 H          1 UNL1 0.000
    59 H       1.740587     1.573942    -4.589237 H          1 UNL1 0.000
    60 C       1.047626     0.593501     1.707151 C          1 UNL1 0.000
    61 N       0.756080    -0.379828     2.609394 N          1 UNL1 0.000
    62 C       1.431675    -0.379502     3.786023 C          1 UNL1 0.000
    63 C       2.385938     0.570645     4.107044 C          1 UNL1 0.000
    64 C       2.671489     1.580032     3.187523 C          1 UNL1 0.000
    65 C       1.992569     1.587390     1.967980 C          1 UNL1 0.000
    66 N       3.075944     0.502176     5.385497 N          1 UNL1 0.000
    67 O       2.645382    -0.292289     6.231978 O          1 UNL1 0.000
    68 O       4.054891     1.244496     5.548278 O          1 UNL1 0.000
    69 H       1.166797    -1.193422     4.456556 H          1 UNL1 0.000
    70 H       3.405102     2.353733     3.400889 H          1 UNL1 0.000
    71 H       2.193069     2.366278     1.238006 H          1 UNL1 0.000
@<TRIPOS>BOND
     1      1      2   2
     2      2      3   1
     3      3      4   2
     4      4      5   1
     5      5      6   2
     6      6      1   1
     7      4      7   1
     8      7      8   1
     9      8      9   2
    10      9     10   1
    11     10     11   2
    12     11     12   1
    13     12     13   2
    14     13      8   1
    15     25     26   2
    16     24     25   1
    17     23     24   2
    18     22     23   1
    19     21     22   2
    20     21     26   1
    21     19     20   2
    22     18     19   1
    23     17     18   2
    24     16     17   1
    25     15     16   2
    26     15     20   1
    27     14     15   1
    28     14     21   1
    29     11     14   1
    30     27     28   2
    31     28     29   1
    32     29     30   2
    33     30     31   1
    34     31     32   2
    35     32     27   1
    36     33     34   1
    37     29     33   1
    38      7     27   1
    39      1     35   1
    40      2     36   1
    41      3     37   1
    42      5     38   1
    43      6     39   1
    44      9     40   1
    45     10     41   1
    46     12     42   1
    47     13     43   1
    48     16     44   1
    49     17     45   1
    50     18     46   1
    51     19     47   1
    52     20     48   1
    53     22     49   1
    54     23     50   1
    55     24     51   1
    56     25     52   1
    57     26     53   1
    58     28     54   1
    59     30     55   1
    60     32     56   1
    61     34     57   1
    62     34     58   1
    63     34     59   1
    64     60     61   2
    65     61     62   1
    66     62     63   2
    67     63     64   1
    68     64     65   2
    69     65     60   1
    70     66     67   2
    71     66     68   1
    72     63     66   1
    73     62     69   1
    74     64     70   1
    75     65     71   1
    76     31     60   1
