# Produced with molli package
@<TRIPOS>MOLECULE
J_5_K
74 80 0 0 0
SMALL
USER_CHARGES

@<TRIPOS>ATOM
     1 C      -7.458837     4.231049    -1.814710 C          1 UNL1 0.000
     2 C      -8.079116     3.091307    -1.312358 C          1 UNL1 0.000
     3 C      -7.421997     1.856278    -1.354120 C          1 UNL1 0.000
     4 C      -6.139765     1.727467    -1.917994 C          1 UNL1 0.000
     5 C      -5.526480     2.902518    -2.396131 C          1 UNL1 0.000
     6 C      -6.178631     4.138823    -2.349410 C          1 UNL1 0.000
     7 N      -5.461382     0.451802    -1.983479 N          1 UNL1 0.000
     8 C      -6.159180    -0.810375    -2.066283 C          1 UNL1 0.000
     9 C      -7.365627    -0.941609    -2.774870 C          1 UNL1 0.000
    10 C      -8.059076    -2.158664    -2.812617 C          1 UNL1 0.000
    11 C      -7.563597    -3.287413    -2.144997 C          1 UNL1 0.000
    12 C      -6.336891    -3.178787    -1.477138 C          1 UNL1 0.000
    13 C      -5.642759    -1.963732    -1.447932 C          1 UNL1 0.000
    14 N      -8.304838    -4.523571    -2.126295 N          1 UNL1 0.000
    15 C      -8.591291    -5.151991    -0.853967 C          1 UNL1 0.000
    16 C      -8.792934    -4.377373     0.305512 C          1 UNL1 0.000
    17 C      -9.073612    -4.972616     1.538829 C          1 UNL1 0.000
    18 C      -9.164052    -6.357275     1.638566 C          1 UNL1 0.000
    19 C      -8.962421    -7.146177     0.509136 C          1 UNL1 0.000
    20 C      -8.670281    -6.549824    -0.722479 C          1 UNL1 0.000
    21 C      -8.772037    -5.083446    -3.374237 C          1 UNL1 0.000
    22 C     -10.008547    -5.746391    -3.468083 C          1 UNL1 0.000
    23 C     -10.446424    -6.292760    -4.678742 C          1 UNL1 0.000
    24 C      -9.662446    -6.173996    -5.823192 C          1 UNL1 0.000
    25 C      -8.441618    -5.508860    -5.759232 C          1 UNL1 0.000
    26 C      -8.001074    -4.970206    -4.546912 C          1 UNL1 0.000
    27 C      -4.024919     0.434879    -1.978648 C          1 UNL1 0.000
    28 C      -3.321558     0.260042    -3.175864 C          1 UNL1 0.000
    29 C      -1.926666     0.271533    -3.178927 C          1 UNL1 0.000
    30 C      -1.210598     0.412691    -1.980438 C          1 UNL1 0.000
    31 C      -1.910470     0.558963    -0.761205 C          1 UNL1 0.000
    32 C      -3.314624     0.595668    -0.778636 C          1 UNL1 0.000
    33 C       0.189893     0.395128    -1.968278 C          1 UNL1 0.000
    34 C       0.892847     0.473515    -0.763712 C          1 UNL1 0.000
    35 C       0.217183     0.578456     0.459532 C          1 UNL1 0.000
    36 C      -1.185949     0.642693     0.442422 C          1 UNL1 0.000
    37 H      -7.968661     5.190225    -1.783307 H          1 UNL1 0.000
    38 H      -9.074651     3.159940    -0.881582 H          1 UNL1 0.000
    39 H      -7.924339     0.994716    -0.921813 H          1 UNL1 0.000
    40 H      -4.531503     2.871656    -2.832362 H          1 UNL1 0.000
    41 H      -5.682842     5.025680    -2.735515 H          1 UNL1 0.000
    42 H      -7.782723    -0.093622    -3.312694 H          1 UNL1 0.000
    43 H      -9.006513    -2.213023    -3.343759 H          1 UNL1 0.000
    44 H      -5.912844    -4.044912    -0.974226 H          1 UNL1 0.000
    45 H      -4.702467    -1.928933    -0.904319 H          1 UNL1 0.000
    46 H      -8.750041    -3.291869     0.256154 H          1 UNL1 0.000
    47 H      -9.225716    -4.350663     2.417079 H          1 UNL1 0.000
    48 H      -9.388809    -6.820702     2.595612 H          1 UNL1 0.000
    49 H      -9.027615    -8.228528     0.584154 H          1 UNL1 0.000
    50 H      -8.491046    -7.193585    -1.580130 H          1 UNL1 0.000
    51 H     -10.653955    -5.830920    -2.597156 H          1 UNL1 0.000
    52 H     -11.402985    -6.806645    -4.725582 H          1 UNL1 0.000
    53 H     -10.003623    -6.596860    -6.764448 H          1 UNL1 0.000
    54 H      -7.826453    -5.410574    -6.649798 H          1 UNL1 0.000
    55 H      -7.034283    -4.472733    -4.521613 H          1 UNL1 0.000
    56 H      -3.865006     0.138015    -4.109367 H          1 UNL1 0.000
    57 H      -1.403177     0.154873    -4.125062 H          1 UNL1 0.000
    58 H      -3.872962     0.719958     0.146750 H          1 UNL1 0.000
    59 H       0.748634     0.303270    -2.897058 H          1 UNL1 0.000
    60 H       1.980590     0.443029    -0.786642 H          1 UNL1 0.000
    61 H      -1.725025     0.722635     1.385478 H          1 UNL1 0.000
    62 C       0.962486     0.580858     1.725264 C          1 UNL1 0.000
    63 C       1.727411    -0.539774     2.098218 C          1 UNL1 0.000
    64 C       2.449244    -0.556649     3.294722 C          1 UNL1 0.000
    65 C       2.408134     0.561257     4.134135 C          1 UNL1 0.000
    66 C       1.650938     1.686271     3.787560 C          1 UNL1 0.000
    67 C       0.932017     1.689632     2.587118 C          1 UNL1 0.000
    68 N       3.168566     0.552150     5.387380 N          1 UNL1 0.000
    69 O       4.044406    -0.312411     5.523271 O          1 UNL1 0.000
    70 O       2.888470     1.412711     6.235779 O          1 UNL1 0.000
    71 H       1.755333    -1.417204     1.452779 H          1 UNL1 0.000
    72 H       3.027519    -1.440754     3.554520 H          1 UNL1 0.000
    73 H       1.614982     2.562964     4.431142 H          1 UNL1 0.000
    74 H       0.353275     2.572241     2.318242 H          1 UNL1 0.000
@<TRIPOS>BOND
     1      1      2   2
     2      2      3   1
     3      3      4   2
     4      4      5   1
     5      5      6   2
     6      6      1   1
     7      4      7   1
     8      7      8   1
     9      8      9   2
    10      9     10   1
    11     10     11   2
    12     11     12   1
    13     12     13   2
    14     13      8   1
    15     25     26   2
    16     24     25   1
    17     23     24   2
    18     22     23   1
    19     21     22   2
    20     21     26   1
    21     19     20   2
    22     18     19   1
    23     17     18   2
    24     16     17   1
    25     15     16   2
    26     15     20   1
    27     14     15   1
    28     14     21   1
    29     11     14   1
    30     27     28   2
    31     28     29   1
    32     29     30   2
    33     30     31   1
    34     31     32   2
    35     32     27   1
    36     30     33   1
    37     33     34   2
    38     34     35   1
    39     35     36   2
    40     36     31   1
    41      7     27   1
    42      1     37   1
    43      2     38   1
    44      3     39   1
    45      5     40   1
    46      6     41   1
    47      9     42   1
    48     10     43   1
    49     12     44   1
    50     13     45   1
    51     16     46   1
    52     17     47   1
    53     18     48   1
    54     19     49   1
    55     20     50   1
    56     22     51   1
    57     23     52   1
    58     24     53   1
    59     25     54   1
    60     26     55   1
    61     28     56   1
    62     29     57   1
    63     32     58   1
    64     33     59   1
    65     34     60   1
    66     36     61   1
    67     62     63   2
    68     63     64   1
    69     64     65   2
    70     65     66   1
    71     66     67   2
    72     67     62   1
    73     68     69   2
    74     68     70   1
    75     65     68   1
    76     63     71   1
    77     64     72   1
    78     66     73   1
    79     67     74   1
    80     35     62   1
