# Produced with molli package
@<TRIPOS>MOLECULE
J_5_N
69 75 0 0 0
SMALL
USER_CHARGES

@<TRIPOS>ATOM
     1 C      -7.368758     4.241106    -2.154198 C          1 UNL1 0.000
     2 C      -8.026147     3.115786    -2.641798 C          1 UNL1 0.000
     3 C      -7.412719     1.858196    -2.581435 C          1 UNL1 0.000
     4 C      -6.138380     1.690983    -2.011018 C          1 UNL1 0.000
     5 C      -5.490305     2.852887    -1.542023 C          1 UNL1 0.000
     6 C      -6.096395     4.111414    -1.610741 C          1 UNL1 0.000
     7 N      -5.488954     0.397437    -1.942931 N          1 UNL1 0.000
     8 C      -6.205891    -0.856793    -1.921831 C          1 UNL1 0.000
     9 C      -7.444960    -0.988440    -1.272180 C          1 UNL1 0.000
    10 C      -8.151480    -2.198745    -1.288343 C          1 UNL1 0.000
    11 C      -7.635132    -3.322592    -1.948515 C          1 UNL1 0.000
    12 C      -6.381192    -3.215522    -2.560967 C          1 UNL1 0.000
    13 C      -5.675693    -2.006890    -2.536758 C          1 UNL1 0.000
    14 N      -8.372920    -4.559626    -1.992795 N          1 UNL1 0.000
    15 C      -8.833404    -5.136501    -0.749977 C          1 UNL1 0.000
    16 C      -8.058743    -5.028272     0.421468 C          1 UNL1 0.000
    17 C      -8.493144    -5.574096     1.632180 C          1 UNL1 0.000
    18 C      -9.711521    -6.243021     1.695813 C          1 UNL1 0.000
    19 C     -10.498314    -6.358626     0.552566 C          1 UNL1 0.000
    20 C     -10.066799    -5.803994    -0.656863 C          1 UNL1 0.000
    21 C      -8.637465    -5.179893    -3.274014 C          1 UNL1 0.000
    22 C      -8.739994    -6.575639    -3.413959 C          1 UNL1 0.000
    23 C      -9.012383    -7.163208    -4.654734 C          1 UNL1 0.000
    24 C      -9.168468    -6.368064    -5.786627 C          1 UNL1 0.000
    25 C      -9.051735    -4.986056    -5.679854 C          1 UNL1 0.000
    26 C      -8.792058    -4.399574    -4.437181 C          1 UNL1 0.000
    27 C      -4.051924     0.362802    -1.964656 C          1 UNL1 0.000
    28 C      -3.361689     0.498511    -3.174894 C          1 UNL1 0.000
    29 C      -1.966809     0.508614    -3.192236 C          1 UNL1 0.000
    30 C      -1.238415     0.431650    -1.995272 C          1 UNL1 0.000
    31 C      -1.927082     0.309856    -0.765736 C          1 UNL1 0.000
    32 C      -3.330092     0.245974    -0.766940 C          1 UNL1 0.000
    33 C       0.163123     0.499548    -1.997019 C          1 UNL1 0.000
    34 C       0.877227     0.489801    -0.797221 C          1 UNL1 0.000
    35 C       0.199988     0.394429     0.419487 C          1 UNL1 0.000
    36 C      -1.195831     0.288364     0.434249 C          1 UNL1 0.000
    37 H      -7.842442     5.217742    -2.205560 H          1 UNL1 0.000
    38 H      -9.015982     3.213914    -3.079965 H          1 UNL1 0.000
    39 H      -7.942766     1.012866    -3.011727 H          1 UNL1 0.000
    40 H      -4.497797     2.797694    -1.102632 H          1 UNL1 0.000
    41 H      -5.568795     4.985630    -1.238085 H          1 UNL1 0.000
    42 H      -7.877124    -0.147947    -0.734586 H          1 UNL1 0.000
    43 H      -9.120590    -2.255018    -0.797927 H          1 UNL1 0.000
    44 H      -5.940569    -4.079140    -3.053613 H          1 UNL1 0.000
    45 H      -4.709525    -1.978369    -3.032730 H          1 UNL1 0.000
    46 H      -7.093984    -4.526569     0.396755 H          1 UNL1 0.000
    47 H      -7.875489    -5.476939     2.521132 H          1 UNL1 0.000
    48 H     -10.048745    -6.670710     2.636256 H          1 UNL1 0.000
    49 H     -11.453093    -6.875641     0.600271 H          1 UNL1 0.000
    50 H     -10.714835    -5.884367    -1.526110 H          1 UNL1 0.000
    51 H      -8.594304    -7.227205    -2.555950 H          1 UNL1 0.000
    52 H      -9.097327    -8.243896    -4.734497 H          1 UNL1 0.000
    53 H      -9.377463    -6.824495    -6.750597 H          1 UNL1 0.000
    54 H      -9.166919    -4.358992    -6.560131 H          1 UNL1 0.000
    55 H      -8.727759    -3.315282    -4.385224 H          1 UNL1 0.000
    56 H      -3.916129     0.592068    -4.105416 H          1 UNL1 0.000
    57 H      -1.454748     0.604290    -4.146458 H          1 UNL1 0.000
    58 H      -3.878332     0.155758     0.167957 H          1 UNL1 0.000
    59 H       0.710087     0.582924    -2.933110 H          1 UNL1 0.000
    60 H       1.961969     0.566084    -0.819952 H          1 UNL1 0.000
    61 H      -1.717480     0.223052     1.386902 H          1 UNL1 0.000
    62 C       0.943029     0.455453     1.664607 C          1 UNL1 0.000
    63 C       1.159564    -0.668620     2.434855 C          1 UNL1 0.000
    64 S       2.071916    -0.321995     3.842546 S          1 UNL1 0.000
    65 C       2.181991     1.335165     3.431885 C          1 UNL1 0.000
    66 C       1.541064     1.616816     2.245501 C          1 UNL1 0.000
    67 H       0.834432    -1.682135     2.241689 H          1 UNL1 0.000
    68 H       2.710768     2.022341     4.078113 H          1 UNL1 0.000
    69 H       1.496484     2.610656     1.816103 H          1 UNL1 0.000
@<TRIPOS>BOND
     1      1      2   2
     2      2      3   1
     3      3      4   2
     4      4      5   1
     5      5      6   2
     6      6      1   1
     7      4      7   1
     8      7      8   1
     9      8      9   2
    10      9     10   1
    11     10     11   2
    12     11     12   1
    13     12     13   2
    14     13      8   1
    15     25     26   2
    16     24     25   1
    17     23     24   2
    18     22     23   1
    19     21     22   2
    20     21     26   1
    21     19     20   2
    22     18     19   1
    23     17     18   2
    24     16     17   1
    25     15     16   2
    26     15     20   1
    27     14     15   1
    28     14     21   1
    29     11     14   1
    30     27     28   2
    31     28     29   1
    32     29     30   2
    33     30     31   1
    34     31     32   2
    35     32     27   1
    36     30     33   1
    37     33     34   2
    38     34     35   1
    39     35     36   2
    40     36     31   1
    41      7     27   1
    42      1     37   1
    43      2     38   1
    44      3     39   1
    45      5     40   1
    46      6     41   1
    47      9     42   1
    48     10     43   1
    49     12     44   1
    50     13     45   1
    51     16     46   1
    52     17     47   1
    53     18     48   1
    54     19     49   1
    55     20     50   1
    56     22     51   1
    57     23     52   1
    58     24     53   1
    59     25     54   1
    60     26     55   1
    61     28     56   1
    62     29     57   1
    63     32     58   1
    64     33     59   1
    65     34     60   1
    66     36     61   1
    67     62     63   2
    68     63     64   1
    69     64     65   1
    70     65     66   2
    71     66     62   1
    72     63     67   1
    73     65     68   1
    74     66     69   1
    75     35     62   1
