# Produced with molli package
@<TRIPOS>MOLECULE
J_5_Q
70 76 0 0 0
SMALL
USER_CHARGES

@<TRIPOS>ATOM
     1 C      -7.387722     4.269127    -2.309753 C          1 UNL1 0.000
     2 C      -8.059826     3.125492    -2.729350 C          1 UNL1 0.000
     3 C      -7.442734     1.870615    -2.642639 C          1 UNL1 0.000
     4 C      -6.152535     1.722651    -2.104147 C          1 UNL1 0.000
     5 C      -5.490586     2.904230    -1.705872 C          1 UNL1 0.000
     6 C      -6.097234     4.160262    -1.807514 C          1 UNL1 0.000
     7 N      -5.496997     0.432942    -1.999087 N          1 UNL1 0.000
     8 C      -6.199933    -0.830651    -1.949160 C          1 UNL1 0.000
     9 C      -7.457106    -0.958938    -1.334382 C          1 UNL1 0.000
    10 C      -8.151854    -2.176999    -1.337113 C          1 UNL1 0.000
    11 C      -7.600123    -3.316797    -1.938085 C          1 UNL1 0.000
    12 C      -6.325051    -3.216624    -2.505523 C          1 UNL1 0.000
    13 C      -5.635692    -1.997790    -2.501050 C          1 UNL1 0.000
    14 N      -8.324051    -4.563472    -1.971129 N          1 UNL1 0.000
    15 C      -8.803515    -5.120628    -0.723873 C          1 UNL1 0.000
    16 C      -8.095555    -4.908447     0.476564 C          1 UNL1 0.000
    17 C      -8.548641    -5.426643     1.693128 C          1 UNL1 0.000
    18 C      -9.716342    -6.180722     1.735520 C          1 UNL1 0.000
    19 C     -10.436844    -6.403734     0.565454 C          1 UNL1 0.000
    20 C      -9.991729    -5.868238    -0.648603 C          1 UNL1 0.000
    21 C      -8.566242    -5.195345    -3.252787 C          1 UNL1 0.000
    22 C      -8.662056    -6.591744    -3.389428 C          1 UNL1 0.000
    23 C      -8.926109    -7.184918    -4.630045 C          1 UNL1 0.000
    24 C      -9.071874    -6.395594    -5.767324 C          1 UNL1 0.000
    25 C      -8.951419    -5.013857    -5.666453 C          1 UNL1 0.000
    26 C      -8.705170    -4.421949    -4.423469 C          1 UNL1 0.000
    27 C      -4.058813     0.411235    -2.021525 C          1 UNL1 0.000
    28 C      -3.372140     0.520680    -3.237669 C          1 UNL1 0.000
    29 C      -1.978329     0.535966    -3.257113 C          1 UNL1 0.000
    30 C      -1.245942     0.482791    -2.062598 C          1 UNL1 0.000
    31 C      -1.930266     0.397167    -0.825961 C          1 UNL1 0.000
    32 C      -3.332496     0.334644    -0.823483 C          1 UNL1 0.000
    33 C       0.153044     0.532087    -2.068239 C          1 UNL1 0.000
    34 C       0.873325     0.516906    -0.871678 C          1 UNL1 0.000
    35 C       0.213815     0.456848     0.365094 C          1 UNL1 0.000
    36 C      -1.189480     0.397656     0.368993 C          1 UNL1 0.000
    37 H      -7.863510     5.243235    -2.383163 H          1 UNL1 0.000
    38 H      -9.064672     3.206607    -3.135676 H          1 UNL1 0.000
    39 H      -7.986824     1.012863    -3.027574 H          1 UNL1 0.000
    40 H      -4.483128     2.869057    -1.299112 H          1 UNL1 0.000
    41 H      -5.555156     5.047947    -1.491775 H          1 UNL1 0.000
    42 H      -7.916776    -0.109421    -0.835527 H          1 UNL1 0.000
    43 H      -9.138287    -2.228019    -0.881875 H          1 UNL1 0.000
    44 H      -5.856940    -4.092235    -2.949260 H          1 UNL1 0.000
    45 H      -4.652369    -1.977493    -2.962680 H          1 UNL1 0.000
    46 H      -7.167898    -4.340523     0.475310 H          1 UNL1 0.000
    47 H      -7.984082    -5.240759     2.603034 H          1 UNL1 0.000
    48 H     -10.066296    -6.589852     2.679500 H          1 UNL1 0.000
    49 H     -11.352240    -6.988963     0.594949 H          1 UNL1 0.000
    50 H     -10.598626    -6.031044    -1.535549 H          1 UNL1 0.000
    51 H      -8.521342    -7.240767    -2.528818 H          1 UNL1 0.000
    52 H      -9.013433    -8.265780    -4.705506 H          1 UNL1 0.000
    53 H      -9.274644    -6.856085    -6.730714 H          1 UNL1 0.000
    54 H      -9.054599    -4.390626    -6.550961 H          1 UNL1 0.000
    55 H      -8.639498    -3.337411    -4.378377 H          1 UNL1 0.000
    56 H      -3.929592     0.588056    -4.168298 H          1 UNL1 0.000
    57 H      -1.468120     0.610016    -4.215474 H          1 UNL1 0.000
    58 H      -3.878074     0.268640     0.116258 H          1 UNL1 0.000
    59 H       0.697818     0.600264    -3.008259 H          1 UNL1 0.000
    60 H       1.958949     0.583153    -0.911240 H          1 UNL1 0.000
    61 H      -1.710664     0.363863     1.326251 H          1 UNL1 0.000
    62 C       0.970297     0.470070     1.617530 C          1 UNL1 0.000
    63 N       0.777940     1.541129     2.430156 N          1 UNL1 0.000
    64 C       1.520133     1.564254     3.561790 C          1 UNL1 0.000
    65 C       2.410946     0.556455     3.889868 C          1 UNL1 0.000
    66 N       2.603141    -0.523506     3.101375 N          1 UNL1 0.000
    67 C       1.866111    -0.540362     1.962622 C          1 UNL1 0.000
    68 H       1.381681     2.427740     4.202486 H          1 UNL1 0.000
    69 H       2.997989     0.592208     4.800399 H          1 UNL1 0.000
    70 H       2.014855    -1.405612     1.325054 H          1 UNL1 0.000
@<TRIPOS>BOND
     1      1      2   2
     2      2      3   1
     3      3      4   2
     4      4      5   1
     5      5      6   2
     6      6      1   1
     7      4      7   1
     8      7      8   1
     9      8      9   2
    10      9     10   1
    11     10     11   2
    12     11     12   1
    13     12     13   2
    14     13      8   1
    15     25     26   2
    16     24     25   1
    17     23     24   2
    18     22     23   1
    19     21     22   2
    20     21     26   1
    21     19     20   2
    22     18     19   1
    23     17     18   2
    24     16     17   1
    25     15     16   2
    26     15     20   1
    27     14     15   1
    28     14     21   1
    29     11     14   1
    30     27     28   2
    31     28     29   1
    32     29     30   2
    33     30     31   1
    34     31     32   2
    35     32     27   1
    36     30     33   1
    37     33     34   2
    38     34     35   1
    39     35     36   2
    40     36     31   1
    41      7     27   1
    42      1     37   1
    43      2     38   1
    44      3     39   1
    45      5     40   1
    46      6     41   1
    47      9     42   1
    48     10     43   1
    49     12     44   1
    50     13     45   1
    51     16     46   1
    52     17     47   1
    53     18     48   1
    54     19     49   1
    55     20     50   1
    56     22     51   1
    57     23     52   1
    58     24     53   1
    59     25     54   1
    60     26     55   1
    61     28     56   1
    62     29     57   1
    63     32     58   1
    64     33     59   1
    65     34     60   1
    66     36     61   1
    67     62     63   2
    68     63     64   1
    69     64     65   2
    70     65     66   1
    71     66     67   2
    72     67     62   1
    73     64     68   1
    74     65     69   1
    75     67     70   1
    76     35     62   1
