# Produced with molli package
@<TRIPOS>MOLECULE
J_5_M
73 79 0 0 0
SMALL
USER_CHARGES

@<TRIPOS>ATOM
     1 C      -7.306550     4.283768    -2.196368 C          1 UNL1 0.000
     2 C      -8.002864     3.168241    -2.646374 C          1 UNL1 0.000
     3 C      -7.405414     1.899328    -2.617286 C          1 UNL1 0.000
     4 C      -6.129768     1.694103    -2.066214 C          1 UNL1 0.000
     5 C      -5.435780     2.857360    -1.658131 C          1 UNL1 0.000
     6 C      -6.009120     4.132336    -1.728355 C          1 UNL1 0.000
     7 N      -5.507041     0.381971    -1.942024 N          1 UNL1 0.000
     8 C      -6.216540    -0.888076    -1.900208 C          1 UNL1 0.000
     9 C      -7.590086    -0.990528    -1.621208 C          1 UNL1 0.000
    10 C      -8.279210    -2.210017    -1.709603 C          1 UNL1 0.000
    11 C      -7.592827    -3.403055    -1.953024 C          1 UNL1 0.000
    12 C      -6.207512    -3.345212    -2.122309 C          1 UNL1 0.000
    13 C      -5.540106    -2.109345    -2.121385 C          1 UNL1 0.000
    14 N      -8.292753    -4.661354    -1.982244 N          1 UNL1 0.000
    15 C      -8.564246    -5.322274    -0.715222 C          1 UNL1 0.000
    16 C      -8.614947    -4.600506     0.495859 C          1 UNL1 0.000
    17 C      -8.930262    -5.214456     1.713210 C          1 UNL1 0.000
    18 C      -9.191385    -6.577133     1.757604 C          1 UNL1 0.000
    19 C      -9.093173    -7.329622     0.592926 C          1 UNL1 0.000
    20 C      -8.757514    -6.712933    -0.619997 C          1 UNL1 0.000
    21 C      -8.733379    -5.175403    -3.270478 C          1 UNL1 0.000
    22 C      -9.846274    -6.029290    -3.398442 C          1 UNL1 0.000
    23 C     -10.227075    -6.570877    -4.633965 C          1 UNL1 0.000
    24 C      -9.535353    -6.229258    -5.789521 C          1 UNL1 0.000
    25 C      -8.476673    -5.333160    -5.710226 C          1 UNL1 0.000
    26 C      -8.085115    -4.812548    -4.469288 C          1 UNL1 0.000
    27 C      -4.062593     0.357039    -1.950811 C          1 UNL1 0.000
    28 C      -3.374377     0.496705    -3.162774 C          1 UNL1 0.000
    29 C      -1.981357     0.556990    -3.177220 C          1 UNL1 0.000
    30 C      -1.250511     0.505122    -1.980960 C          1 UNL1 0.000
    31 C      -1.930270     0.362439    -0.748494 C          1 UNL1 0.000
    32 C      -3.335555     0.268200    -0.750597 C          1 UNL1 0.000
    33 C       0.146702     0.609964    -1.989516 C          1 UNL1 0.000
    34 C       0.870887     0.591486    -0.796166 C          1 UNL1 0.000
    35 C       0.218498     0.463439     0.435838 C          1 UNL1 0.000
    36 C      -1.181637     0.343110     0.446004 C          1 UNL1 0.000
    37 H      -7.765692     5.268009    -2.227014 H          1 UNL1 0.000
    38 H      -9.012554     3.280982    -3.033342 H          1 UNL1 0.000
    39 H      -7.965579     1.082432    -3.060348 H          1 UNL1 0.000
    40 H      -4.423413     2.796315    -1.267373 H          1 UNL1 0.000
    41 H      -5.437381     4.999696    -1.408697 H          1 UNL1 0.000
    42 H      -8.168608    -0.126458    -1.311872 H          1 UNL1 0.000
    43 H      -9.353795    -2.232702    -1.543118 H          1 UNL1 0.000
    44 H      -5.643332    -4.261079    -2.280894 H          1 UNL1 0.000
    45 H      -4.468442    -2.130466    -2.303110 H          1 UNL1 0.000
    46 H      -8.424546    -3.532628     0.524085 H          1 UNL1 0.000
    47 H      -8.975148    -4.618142     2.620852 H          1 UNL1 0.000
    48 H      -9.454157    -7.051988     2.698723 H          1 UNL1 0.000
    49 H      -9.273174    -8.401059     0.623211 H          1 UNL1 0.000
    50 H      -8.641523    -7.350496    -1.492285 H          1 UNL1 0.000
    51 H     -10.454114    -6.283627    -2.534603 H          1 UNL1 0.000
    52 H     -11.070032    -7.255206    -4.688097 H          1 UNL1 0.000
    53 H      -9.828903    -6.647114    -6.748790 H          1 UNL1 0.000
    54 H      -7.945597    -5.037602    -6.611577 H          1 UNL1 0.000
    55 H      -7.246617    -4.123091    -4.466766 H          1 UNL1 0.000
    56 H      -3.929781     0.568608    -4.094569 H          1 UNL1 0.000
    57 H      -1.471896     0.668284    -4.131740 H          1 UNL1 0.000
    58 H      -3.881010     0.172576     0.185777 H          1 UNL1 0.000
    59 H       0.686264     0.719783    -2.927747 H          1 UNL1 0.000
    60 H       1.954596     0.686234    -0.832788 H          1 UNL1 0.000
    61 H      -1.696290     0.244050     1.400756 H          1 UNL1 0.000
    62 C       0.995324     0.463788     1.678913 C          1 UNL1 0.000
    63 C       1.556583    -0.723697     2.171807 C          1 UNL1 0.000
    64 C       2.334162    -0.719845     3.334750 C          1 UNL1 0.000
    65 C       2.562166     0.475640     4.021998 C          1 UNL1 0.000
    66 C       2.006762     1.665198     3.542344 C          1 UNL1 0.000
    67 C       1.228668     1.657415     2.379349 C          1 UNL1 0.000
    68 C       3.366452     0.481978     5.210420 C          1 UNL1 0.000
    69 N       4.017301     0.486819     6.169346 N          1 UNL1 0.000
    70 H       1.395314    -1.661324     1.642238 H          1 UNL1 0.000
    71 H       2.762226    -1.654300     3.693049 H          1 UNL1 0.000
    72 H       2.178908     2.605382     4.063373 H          1 UNL1 0.000
    73 H       0.812087     2.594092     2.012106 H          1 UNL1 0.000
@<TRIPOS>BOND
     1      1      2   2
     2      2      3   1
     3      3      4   2
     4      4      5   1
     5      5      6   2
     6      6      1   1
     7      4      7   1
     8      7      8   1
     9      8      9   2
    10      9     10   1
    11     10     11   2
    12     11     12   1
    13     12     13   2
    14     13      8   1
    15     25     26   2
    16     24     25   1
    17     23     24   2
    18     22     23   1
    19     21     22   2
    20     21     26   1
    21     19     20   2
    22     18     19   1
    23     17     18   2
    24     16     17   1
    25     15     16   2
    26     15     20   1
    27     14     15   1
    28     14     21   1
    29     11     14   1
    30     27     28   2
    31     28     29   1
    32     29     30   2
    33     30     31   1
    34     31     32   2
    35     32     27   1
    36     30     33   1
    37     33     34   2
    38     34     35   1
    39     35     36   2
    40     36     31   1
    41      7     27   1
    42      1     37   1
    43      2     38   1
    44      3     39   1
    45      5     40   1
    46      6     41   1
    47      9     42   1
    48     10     43   1
    49     12     44   1
    50     13     45   1
    51     16     46   1
    52     17     47   1
    53     18     48   1
    54     19     49   1
    55     20     50   1
    56     22     51   1
    57     23     52   1
    58     24     53   1
    59     25     54   1
    60     26     55   1
    61     28     56   1
    62     29     57   1
    63     32     58   1
    64     33     59   1
    65     34     60   1
    66     36     61   1
    67     62     63   2
    68     63     64   1
    69     64     65   2
    70     65     66   1
    71     66     67   2
    72     67     62   1
    73     68     69   3
    74     65     68   1
    75     63     70   1
    76     64     71   1
    77     66     72   1
    78     67     73   1
    79     35     62   1
