# Produced with molli package
@<TRIPOS>MOLECULE
J_5_P
76 82 0 0 0
SMALL
USER_CHARGES

@<TRIPOS>ATOM
     1 C      -7.196765     4.135351    -1.784422 C          1 UNL1 0.000
     2 C      -7.812821     3.045372    -1.177795 C          1 UNL1 0.000
     3 C      -7.193209     1.789176    -1.186936 C          1 UNL1 0.000
     4 C      -5.971281     1.578970    -1.848077 C          1 UNL1 0.000
     5 C      -5.352051     2.712125    -2.416866 C          1 UNL1 0.000
     6 C      -5.955308     3.973522    -2.386998 C          1 UNL1 0.000
     7 N      -5.344516     0.274300    -1.935740 N          1 UNL1 0.000
     8 C      -6.069832    -0.979974    -2.037230 C          1 UNL1 0.000
     9 C      -7.435668    -1.042543    -2.363998 C          1 UNL1 0.000
    10 C      -8.142071    -2.253409    -2.357574 C          1 UNL1 0.000
    11 C      -7.481750    -3.464848    -2.130990 C          1 UNL1 0.000
    12 C      -6.102846    -3.437009    -1.906202 C          1 UNL1 0.000
    13 C      -5.418669    -2.215597    -1.830727 C          1 UNL1 0.000
    14 N      -8.206617    -4.707935    -2.118905 N          1 UNL1 0.000
    15 C      -8.642134    -5.232015    -0.833466 C          1 UNL1 0.000
    16 C      -7.951264    -4.932497     0.359226 C          1 UNL1 0.000
    17 C      -8.351781    -5.449249     1.597499 C          1 UNL1 0.000
    18 C      -9.465166    -6.275134     1.680456 C          1 UNL1 0.000
    19 C     -10.193431    -6.557657     0.530516 C          1 UNL1 0.000
    20 C      -9.797632    -6.025908    -0.704275 C          1 UNL1 0.000
    21 C      -8.513618    -5.346817    -3.387187 C          1 UNL1 0.000
    22 C      -8.703780    -6.737955    -3.490820 C          1 UNL1 0.000
    23 C      -9.057988    -7.345488    -4.702688 C          1 UNL1 0.000
    24 C      -9.189800    -6.580982    -5.856277 C          1 UNL1 0.000
    25 C      -8.944592    -5.215070    -5.801926 C          1 UNL1 0.000
    26 C      -8.602681    -4.610724    -4.586271 C          1 UNL1 0.000
    27 C      -3.904352     0.239012    -1.935441 C          1 UNL1 0.000
    28 C      -3.200282     0.080990    -3.135798 C          1 UNL1 0.000
    29 C      -1.805173     0.085874    -3.136154 C          1 UNL1 0.000
    30 C      -1.087536     0.214099    -1.936983 C          1 UNL1 0.000
    31 C      -1.788603     0.344459    -0.714785 C          1 UNL1 0.000
    32 C      -3.193124     0.372497    -0.732080 C          1 UNL1 0.000
    33 C       0.313649     0.208624    -1.924628 C          1 UNL1 0.000
    34 C       1.018981     0.300252    -0.722164 C          1 UNL1 0.000
    35 C       0.342126     0.404132     0.499551 C          1 UNL1 0.000
    36 C      -1.061747     0.436070     0.486356 C          1 UNL1 0.000
    37 H      -7.676511     5.110311    -1.777513 H          1 UNL1 0.000
    38 H      -8.776840     3.169444    -0.691212 H          1 UNL1 0.000
    39 H      -7.683597     0.976442    -0.657933 H          1 UNL1 0.000
    40 H      -4.389847     2.627974    -2.914943 H          1 UNL1 0.000
    41 H      -5.453555     4.822680    -2.843601 H          1 UNL1 0.000
    42 H      -7.990304    -0.150008    -2.635947 H          1 UNL1 0.000
    43 H      -9.211213    -2.250923    -2.556185 H          1 UNL1 0.000
    44 H      -5.561417    -4.366364    -1.746572 H          1 UNL1 0.000
    45 H      -4.358313    -2.256664    -1.594102 H          1 UNL1 0.000
    46 H      -7.072114    -4.296494     0.356081 H          1 UNL1 0.000
    47 H      -7.786405    -5.202866     2.492760 H          1 UNL1 0.000
    48 H      -9.771186    -6.684681     2.639234 H          1 UNL1 0.000
    49 H     -11.077694    -7.186854     0.589812 H          1 UNL1 0.000
    50 H     -10.426547    -6.233335    -1.565794 H          1 UNL1 0.000
    51 H      -8.568121    -7.380143    -2.624434 H          1 UNL1 0.000
    52 H      -9.225897    -8.418607    -4.741004 H          1 UNL1 0.000
    53 H      -9.467878    -7.048744    -6.796690 H          1 UNL1 0.000
    54 H      -9.021394    -4.609763    -6.701579 H          1 UNL1 0.000
    55 H      -8.424592    -3.540655    -4.605140 H          1 UNL1 0.000
    56 H      -3.743844    -0.021679    -4.071367 H          1 UNL1 0.000
    57 H      -1.280875    -0.016267    -4.084089 H          1 UNL1 0.000
    58 H      -3.750636     0.482751     0.196254 H          1 UNL1 0.000
    59 H       0.872415     0.126911    -2.854853 H          1 UNL1 0.000
    60 H       2.106865     0.290272    -0.742731 H          1 UNL1 0.000
    61 H      -1.595973     0.517101     1.432791 H          1 UNL1 0.000
    62 C       1.087295     0.469693     1.760857 C          1 UNL1 0.000
    63 C       1.697126    -0.679137     2.293518 C          1 UNL1 0.000
    64 C       2.410693    -0.620649     3.494073 C          1 UNL1 0.000
    65 C       2.531204     0.594838     4.161898 C          1 UNL1 0.000
    66 C       1.915969     1.739796     3.664625 C          1 UNL1 0.000
    67 C       1.203599     1.678580     2.464565 C          1 UNL1 0.000
    68 O       3.190416     0.680549     5.357222 O          1 UNL1 0.000
    69 C       4.602732     0.645769     5.152788 C          1 UNL1 0.000
    70 H       1.603862    -1.632894     1.777560 H          1 UNL1 0.000
    71 H       2.853966    -1.521932     3.906518 H          1 UNL1 0.000
    72 H       1.993887     2.677691     4.206439 H          1 UNL1 0.000
    73 H       0.738556     2.582401     2.076718 H          1 UNL1 0.000
    74 H       5.083349     0.925338     6.095309 H          1 UNL1 0.000
    75 H       4.917706     1.365317     4.388098 H          1 UNL1 0.000
    76 H       4.934909    -0.363479     4.888598 H          1 UNL1 0.000
@<TRIPOS>BOND
     1      1      2   2
     2      2      3   1
     3      3      4   2
     4      4      5   1
     5      5      6   2
     6      6      1   1
     7      4      7   1
     8      7      8   1
     9      8      9   2
    10      9     10   1
    11     10     11   2
    12     11     12   1
    13     12     13   2
    14     13      8   1
    15     25     26   2
    16     24     25   1
    17     23     24   2
    18     22     23   1
    19     21     22   2
    20     21     26   1
    21     19     20   2
    22     18     19   1
    23     17     18   2
    24     16     17   1
    25     15     16   2
    26     15     20   1
    27     14     15   1
    28     14     21   1
    29     11     14   1
    30     27     28   2
    31     28     29   1
    32     29     30   2
    33     30     31   1
    34     31     32   2
    35     32     27   1
    36     30     33   1
    37     33     34   2
    38     34     35   1
    39     35     36   2
    40     36     31   1
    41      7     27   1
    42      1     37   1
    43      2     38   1
    44      3     39   1
    45      5     40   1
    46      6     41   1
    47      9     42   1
    48     10     43   1
    49     12     44   1
    50     13     45   1
    51     16     46   1
    52     17     47   1
    53     18     48   1
    54     19     49   1
    55     20     50   1
    56     22     51   1
    57     23     52   1
    58     24     53   1
    59     25     54   1
    60     26     55   1
    61     28     56   1
    62     29     57   1
    63     32     58   1
    64     33     59   1
    65     34     60   1
    66     36     61   1
    67     62     63   2
    68     63     64   1
    69     64     65   2
    70     65     66   1
    71     66     67   2
    72     67     62   1
    73     68     69   1
    74     65     68   1
    75     63     70   1
    76     64     71   1
    77     66     72   1
    78     67     73   1
    79     69     74   1
    80     69     75   1
    81     69     76   1
    82     35     62   1
