# Produced with molli package
@<TRIPOS>MOLECULE
J_5_T
75 81 0 0 0
SMALL
USER_CHARGES

@<TRIPOS>ATOM
     1 C      -7.325365     4.231624    -2.600088 C          1 UNL1 0.000
     2 C      -7.865036     3.094045    -3.193263 C          1 UNL1 0.000
     3 C      -7.250386     1.848288    -3.018493 C          1 UNL1 0.000
     4 C      -6.107119     1.704565    -2.214674 C          1 UNL1 0.000
     5 C      -5.568070     2.878172    -1.647444 C          1 UNL1 0.000
     6 C      -6.167946     4.126537    -1.837472 C          1 UNL1 0.000
     7 N      -5.462415     0.425238    -1.997395 N          1 UNL1 0.000
     8 C      -6.166625    -0.840185    -1.927099 C          1 UNL1 0.000
     9 C      -7.547696    -0.917856    -1.672956 C          1 UNL1 0.000
    10 C      -8.235058    -2.138667    -1.706940 C          1 UNL1 0.000
    11 C      -7.545236    -3.339363    -1.903252 C          1 UNL1 0.000
    12 C      -6.157734    -3.294270    -2.060875 C          1 UNL1 0.000
    13 C      -5.486455    -2.064915    -2.095469 C          1 UNL1 0.000
    14 N      -8.248579    -4.592511    -1.932402 N          1 UNL1 0.000
    15 C      -8.521303    -5.268470    -0.678065 C          1 UNL1 0.000
    16 C      -8.563721    -4.567677     0.544243 C          1 UNL1 0.000
    17 C      -8.853900    -5.210423     1.753059 C          1 UNL1 0.000
    18 C      -9.095642    -6.578373     1.774328 C          1 UNL1 0.000
    19 C      -9.019924    -7.305997     0.591862 C          1 UNL1 0.000
    20 C      -8.719633    -6.660697    -0.614311 C          1 UNL1 0.000
    21 C      -8.692426    -5.095434    -3.218939 C          1 UNL1 0.000
    22 C      -9.890691    -5.820966    -3.356357 C          1 UNL1 0.000
    23 C     -10.301674    -6.330820    -4.594390 C          1 UNL1 0.000
    24 C      -9.538559    -6.100168    -5.734118 C          1 UNL1 0.000
    25 C      -8.373528    -5.348520    -5.638248 C          1 UNL1 0.000
    26 C      -7.960685    -4.848547    -4.397711 C          1 UNL1 0.000
    27 C      -4.022413     0.425339    -1.984234 C          1 UNL1 0.000
    28 C      -3.315500     0.568035    -3.185011 C          1 UNL1 0.000
    29 C      -1.921447     0.596305    -3.182092 C          1 UNL1 0.000
    30 C      -1.209624     0.515610    -1.976330 C          1 UNL1 0.000
    31 C      -1.912125     0.384821    -0.755832 C          1 UNL1 0.000
    32 C      -3.316044     0.316930    -0.776163 C          1 UNL1 0.000
    33 C       0.189974     0.578212    -1.961506 C          1 UNL1 0.000
    34 C       0.890550     0.539310    -0.754527 C          1 UNL1 0.000
    35 C       0.211530     0.434741     0.465503 C          1 UNL1 0.000
    36 C      -1.189517     0.346729     0.450988 C          1 UNL1 0.000
    37 H      -7.799310     5.199392    -2.740257 H          1 UNL1 0.000
    38 H      -8.762252     3.173600    -3.801583 H          1 UNL1 0.000
    39 H      -7.672629     0.992567    -3.538384 H          1 UNL1 0.000
    40 H      -4.671784     2.833600    -1.033858 H          1 UNL1 0.000
    41 H      -5.728164     5.011514    -1.385053 H          1 UNL1 0.000
    42 H      -8.124026    -0.026584    -1.442078 H          1 UNL1 0.000
    43 H      -9.311359    -2.154127    -1.553335 H          1 UNL1 0.000
    44 H      -5.597455    -4.216708    -2.192019 H          1 UNL1 0.000
    45 H      -4.414096    -2.090143    -2.271948 H          1 UNL1 0.000
    46 H      -8.385105    -3.497585     0.584274 H          1 UNL1 0.000
    47 H      -8.891234    -4.634375     2.674088 H          1 UNL1 0.000
    48 H      -9.329124    -7.076701     2.711150 H          1 UNL1 0.000
    49 H      -9.187978    -8.379681     0.603285 H          1 UNL1 0.000
    50 H      -8.628593    -7.273610    -1.507307 H          1 UNL1 0.000
    51 H     -10.534674    -5.988364    -2.496767 H          1 UNL1 0.000
    52 H     -11.222777    -6.903418    -4.664891 H          1 UNL1 0.000
    53 H      -9.855405    -6.495387    -6.695523 H          1 UNL1 0.000
    54 H      -7.777754    -5.149681    -6.525513 H          1 UNL1 0.000
    55 H      -7.039142    -4.275533    -4.374301 H          1 UNL1 0.000
    56 H      -3.856394     0.651126    -4.124392 H          1 UNL1 0.000
    57 H      -1.396567     0.699765    -4.128763 H          1 UNL1 0.000
    58 H      -3.875275     0.215393     0.151094 H          1 UNL1 0.000
    59 H       0.748997     0.673100    -2.889473 H          1 UNL1 0.000
    60 H       1.976705     0.607701    -0.768301 H          1 UNL1 0.000
    61 H      -1.722329     0.260760     1.396764 H          1 UNL1 0.000
    62 C       0.957922     0.440322     1.725892 C          1 UNL1 0.000
    63 C       1.586434    -0.721144     2.194029 C          1 UNL1 0.000
    64 C       2.335361    -0.703113     3.374550 C          1 UNL1 0.000
    65 C       2.464527     0.476875     4.114719 C          1 UNL1 0.000
    66 C       1.841813     1.640571     3.650706 C          1 UNL1 0.000
    67 C       1.091781     1.620297     2.471337 C          1 UNL1 0.000
    68 C       3.305845     0.516337     5.355800 C          1 UNL1 0.000
    69 H       1.501245    -1.649276     1.632640 H          1 UNL1 0.000
    70 H       2.820723    -1.617782     3.707053 H          1 UNL1 0.000
    71 H       1.942678     2.573813     4.200263 H          1 UNL1 0.000
    72 H       0.623430     2.539248     2.124346 H          1 UNL1 0.000
    73 H       2.810798     1.101579     6.137663 H          1 UNL1 0.000
    74 H       4.278522     0.966500     5.133588 H          1 UNL1 0.000
    75 H       3.472043    -0.489459     5.755430 H          1 UNL1 0.000
@<TRIPOS>BOND
     1      1      2   2
     2      2      3   1
     3      3      4   2
     4      4      5   1
     5      5      6   2
     6      6      1   1
     7      4      7   1
     8      7      8   1
     9      8      9   2
    10      9     10   1
    11     10     11   2
    12     11     12   1
    13     12     13   2
    14     13      8   1
    15     25     26   2
    16     24     25   1
    17     23     24   2
    18     22     23   1
    19     21     22   2
    20     21     26   1
    21     19     20   2
    22     18     19   1
    23     17     18   2
    24     16     17   1
    25     15     16   2
    26     15     20   1
    27     14     15   1
    28     14     21   1
    29     11     14   1
    30     27     28   2
    31     28     29   1
    32     29     30   2
    33     30     31   1
    34     31     32   2
    35     32     27   1
    36     30     33   1
    37     33     34   2
    38     34     35   1
    39     35     36   2
    40     36     31   1
    41      7     27   1
    42      1     37   1
    43      2     38   1
    44      3     39   1
    45      5     40   1
    46      6     41   1
    47      9     42   1
    48     10     43   1
    49     12     44   1
    50     13     45   1
    51     16     46   1
    52     17     47   1
    53     18     48   1
    54     19     49   1
    55     20     50   1
    56     22     51   1
    57     23     52   1
    58     24     53   1
    59     25     54   1
    60     26     55   1
    61     28     56   1
    62     29     57   1
    63     32     58   1
    64     33     59   1
    65     34     60   1
    66     36     61   1
    67     62     63   2
    68     63     64   1
    69     64     65   2
    70     65     66   1
    71     66     67   2
    72     67     62   1
    73     65     68   1
    74     63     69   1
    75     64     70   1
    76     66     71   1
    77     67     72   1
    78     68     73   1
    79     68     74   1
    80     68     75   1
    81     35     62   1
