# Produced with molli package
@<TRIPOS>MOLECULE
J_5_L
76 83 0 0 0
SMALL
USER_CHARGES

@<TRIPOS>ATOM
     1 C      -7.205326     4.239770    -2.326856 C          1 UNL1 0.000
     2 C      -7.868586     3.124721    -2.827489 C          1 UNL1 0.000
     3 C      -7.281278     1.854678    -2.743712 C          1 UNL1 0.000
     4 C      -6.045442     1.654756    -2.105715 C          1 UNL1 0.000
     5 C      -5.384996     2.812712    -1.637066 C          1 UNL1 0.000
     6 C      -5.952151     4.086801    -1.748972 C          1 UNL1 0.000
     7 N      -5.431052     0.345028    -1.960250 N          1 UNL1 0.000
     8 C      -6.154385    -0.913584    -1.923143 C          1 UNL1 0.000
     9 C      -7.523489    -0.993397    -1.616862 C          1 UNL1 0.000
    10 C      -8.227609    -2.204420    -1.686737 C          1 UNL1 0.000
    11 C      -7.561601    -3.405597    -1.951332 C          1 UNL1 0.000
    12 C      -6.180989    -3.364131    -2.160640 C          1 UNL1 0.000
    13 C      -5.498316    -2.139034    -2.171727 C          1 UNL1 0.000
    14 N      -8.275728    -4.654948    -1.973148 N          1 UNL1 0.000
    15 C      -8.569798    -5.306457    -0.707268 C          1 UNL1 0.000
    16 C      -8.649766    -4.581283     0.499211 C          1 UNL1 0.000
    17 C      -8.978412    -5.196396     1.712586 C          1 UNL1 0.000
    18 C      -9.218576    -6.563257     1.757451 C          1 UNL1 0.000
    19 C      -9.094962    -7.317619     0.596239 C          1 UNL1 0.000
    20 C      -8.754541    -6.698997    -0.613890 C          1 UNL1 0.000
    21 C      -8.705788    -5.183566    -3.257564 C          1 UNL1 0.000
    22 C      -9.867541    -5.969855    -3.385091 C          1 UNL1 0.000
    23 C     -10.258249    -6.516645    -4.614552 C          1 UNL1 0.000
    24 C      -9.517533    -6.257152    -5.761687 C          1 UNL1 0.000
    25 C      -8.398053    -5.438157    -5.680982 C          1 UNL1 0.000
    26 C      -8.002950    -4.904957    -4.447145 C          1 UNL1 0.000
    27 C      -3.989751     0.306594    -1.945120 C          1 UNL1 0.000
    28 C      -3.278387     0.402007    -3.148251 C          1 UNL1 0.000
    29 C      -1.884580     0.424342    -3.139438 C          1 UNL1 0.000
    30 C      -1.176626     0.387159    -1.929501 C          1 UNL1 0.000
    31 C      -1.883169     0.292965    -0.706480 C          1 UNL1 0.000
    32 C      -3.287124     0.228324    -0.731704 C          1 UNL1 0.000
    33 C       0.221289     0.462120    -1.910016 C          1 UNL1 0.000
    34 C       0.918312     0.473983    -0.700256 C          1 UNL1 0.000
    35 C       0.238933     0.399249     0.523300 C          1 UNL1 0.000
    36 C      -1.162115     0.294895     0.502581 C          1 UNL1 0.000
    37 H      -7.656250     5.225632    -2.399621 H          1 UNL1 0.000
    38 H      -8.842821     3.239486    -3.295758 H          1 UNL1 0.000
    39 H      -7.809452     1.028634    -3.210305 H          1 UNL1 0.000
    40 H      -4.408676     2.745000    -1.164167 H          1 UNL1 0.000
    41 H      -5.410084     4.953058    -1.378515 H          1 UNL1 0.000
    42 H      -8.079878    -0.114796    -1.304900 H          1 UNL1 0.000
    43 H      -9.297826    -2.213438    -1.493628 H          1 UNL1 0.000
    44 H      -5.632710    -4.285176    -2.343108 H          1 UNL1 0.000
    45 H      -4.433322    -2.170080    -2.387466 H          1 UNL1 0.000
    46 H      -8.473453    -3.511279     0.527438 H          1 UNL1 0.000
    47 H      -9.048117    -4.598253     2.617532 H          1 UNL1 0.000
    48 H      -9.486002    -7.039548     2.696548 H          1 UNL1 0.000
    49 H      -9.258391    -8.391605     0.627249 H          1 UNL1 0.000
    50 H      -8.625018    -7.333836    -1.486588 H          1 UNL1 0.000
    51 H     -10.502553    -6.161277    -2.524055 H          1 UNL1 0.000
    52 H     -11.146557    -7.140448    -4.671419 H          1 UNL1 0.000
    53 H      -9.818177    -6.680014    -6.716515 H          1 UNL1 0.000
    54 H      -7.823220    -5.211873    -6.575564 H          1 UNL1 0.000
    55 H      -7.117661    -4.277580    -4.442980 H          1 UNL1 0.000
    56 H      -3.816512     0.461611    -4.090740 H          1 UNL1 0.000
    57 H      -1.355196     0.496109    -4.087238 H          1 UNL1 0.000
    58 H      -3.850928     0.164819     0.196957 H          1 UNL1 0.000
    59 H       0.783870     0.527715    -2.839100 H          1 UNL1 0.000
    60 H       2.004401     0.542802    -0.716131 H          1 UNL1 0.000
    61 H      -1.701010     0.244030     1.448259 H          1 UNL1 0.000
    62 C       0.984152     0.443106     1.789078 C          1 UNL1 0.000
    63 C       1.006162    -0.664875     2.647972 C          1 UNL1 0.000
    64 C       1.735085    -0.660511     3.844548 C          1 UNL1 0.000
    65 C       2.446811     0.499813     4.164252 C          1 UNL1 0.000
    66 C       2.447981     1.628984     3.347333 C          1 UNL1 0.000
    67 C       1.708197     1.597603     2.148139 C          1 UNL1 0.000
    68 N       3.243097     0.785559     5.250652 N          1 UNL1 0.000
    69 C       3.741976     2.057551     5.150768 C          1 UNL1 0.000
    70 C       3.264471     2.605644     3.982144 C          1 UNL1 0.000
    71 H       0.457645    -1.565851     2.377060 H          1 UNL1 0.000
    72 H       1.747387    -1.532473     4.489946 H          1 UNL1 0.000
    73 H       1.699730     2.472429     1.502982 H          1 UNL1 0.000
    74 H       3.429313     0.143965     6.008793 H          1 UNL1 0.000
    75 H       4.391223     2.460851     5.916181 H          1 UNL1 0.000
    76 H       3.479997     3.601686     3.618361 H          1 UNL1 0.000
@<TRIPOS>BOND
     1      1      2   2
     2      2      3   1
     3      3      4   2
     4      4      5   1
     5      5      6   2
     6      6      1   1
     7      4      7   1
     8      7      8   1
     9      8      9   2
    10      9     10   1
    11     10     11   2
    12     11     12   1
    13     12     13   2
    14     13      8   1
    15     25     26   2
    16     24     25   1
    17     23     24   2
    18     22     23   1
    19     21     22   2
    20     21     26   1
    21     19     20   2
    22     18     19   1
    23     17     18   2
    24     16     17   1
    25     15     16   2
    26     15     20   1
    27     14     15   1
    28     14     21   1
    29     11     14   1
    30     27     28   2
    31     28     29   1
    32     29     30   2
    33     30     31   1
    34     31     32   2
    35     32     27   1
    36     30     33   1
    37     33     34   2
    38     34     35   1
    39     35     36   2
    40     36     31   1
    41      7     27   1
    42      1     37   1
    43      2     38   1
    44      3     39   1
    45      5     40   1
    46      6     41   1
    47      9     42   1
    48     10     43   1
    49     12     44   1
    50     13     45   1
    51     16     46   1
    52     17     47   1
    53     18     48   1
    54     19     49   1
    55     20     50   1
    56     22     51   1
    57     23     52   1
    58     24     53   1
    59     25     54   1
    60     26     55   1
    61     28     56   1
    62     29     57   1
    63     32     58   1
    64     33     59   1
    65     34     60   1
    66     36     61   1
    67     62     63   2
    68     63     64   1
    69     64     65   2
    70     65     66   1
    71     66     67   2
    72     67     62   1
    73     65     68   1
    74     68     69   1
    75     69     70   2
    76     70     66   1
    77     63     71   1
    78     64     72   1
    79     67     73   1
    80     68     74   1
    81     69     75   1
    82     70     76   1
    83     35     62   1
