# Produced with molli package
@<TRIPOS>MOLECULE
J_5_R
73 79 0 0 0
SMALL
USER_CHARGES

@<TRIPOS>ATOM
     1 C      -7.381150     4.213449    -1.682549 C          1 UNL1 0.000
     2 C      -7.998301     3.088890    -1.144128 C          1 UNL1 0.000
     3 C      -7.361432     1.842100    -1.193281 C          1 UNL1 0.000
     4 C      -6.118286     1.677458    -1.827252 C          1 UNL1 0.000
     5 C      -5.501504     2.843458    -2.329445 C          1 UNL1 0.000
     6 C      -6.122547     4.094718    -2.258757 C          1 UNL1 0.000
     7 N      -5.466432     0.387481    -1.948837 N          1 UNL1 0.000
     8 C      -6.164666    -0.878294    -2.080578 C          1 UNL1 0.000
     9 C      -7.518119    -0.963242    -2.449426 C          1 UNL1 0.000
    10 C      -8.203452    -2.186190    -2.460455 C          1 UNL1 0.000
    11 C      -7.530192    -3.385435    -2.207166 C          1 UNL1 0.000
    12 C      -6.157825    -3.334327    -1.949522 C          1 UNL1 0.000
    13 C      -5.496956    -2.102063    -1.858475 C          1 UNL1 0.000
    14 N      -8.236279    -4.638433    -2.188315 N          1 UNL1 0.000
    15 C      -8.682755    -5.153531    -0.903641 C          1 UNL1 0.000
    16 C      -8.005464    -4.845634     0.294163 C          1 UNL1 0.000
    17 C      -8.419631    -5.355901     1.530396 C          1 UNL1 0.000
    18 C      -9.534299    -6.181110     1.605352 C          1 UNL1 0.000
    19 C     -10.248785    -6.472225     0.448722 C          1 UNL1 0.000
    20 C      -9.837747    -5.949923    -0.784707 C          1 UNL1 0.000
    21 C      -8.507892    -5.308058    -3.447398 C          1 UNL1 0.000
    22 C      -8.645991    -6.707376    -3.524393 C          1 UNL1 0.000
    23 C      -8.962369    -7.351219    -4.727343 C          1 UNL1 0.000
    24 C      -9.111619    -6.613728    -5.896326 C          1 UNL1 0.000
    25 C      -8.921988    -5.237791    -5.865676 C          1 UNL1 0.000
    26 C      -8.614923    -4.597229    -4.659257 C          1 UNL1 0.000
    27 C      -4.026196     0.376920    -1.933868 C          1 UNL1 0.000
    28 C      -3.309349     0.252906    -3.129922 C          1 UNL1 0.000
    29 C      -1.915183     0.293118    -3.118261 C          1 UNL1 0.000
    30 C      -1.213013     0.426803    -1.910143 C          1 UNL1 0.000
    31 C      -1.924751     0.510687    -0.692199 C          1 UNL1 0.000
    32 C      -3.329509     0.502336    -0.720590 C          1 UNL1 0.000
    33 C       0.186470     0.472051    -1.888976 C          1 UNL1 0.000
    34 C       0.878969     0.581353    -0.679901 C          1 UNL1 0.000
    35 C       0.195674     0.637558     0.544459 C          1 UNL1 0.000
    36 C      -1.209522     0.598312     0.517735 C          1 UNL1 0.000
    37 H      -7.873863     5.181147    -1.642959 H          1 UNL1 0.000
    38 H      -8.976451     3.178344    -0.678536 H          1 UNL1 0.000
    39 H      -7.855326     1.001220    -0.714098 H          1 UNL1 0.000
    40 H      -4.525329     2.794706    -2.804678 H          1 UNL1 0.000
    41 H      -5.620652     4.970207    -2.662399 H          1 UNL1 0.000
    42 H      -8.077913    -0.078405    -2.736443 H          1 UNL1 0.000
    43 H      -9.267037    -2.201816    -2.686084 H          1 UNL1 0.000
    44 H      -5.605604    -4.253663    -1.769958 H          1 UNL1 0.000
    45 H      -4.443455    -2.124545    -1.590619 H          1 UNL1 0.000
    46 H      -7.125981    -4.210278     0.296798 H          1 UNL1 0.000
    47 H      -7.863716    -5.105319     2.430417 H          1 UNL1 0.000
    48 H      -9.851367    -6.584525     2.563125 H          1 UNL1 0.000
    49 H     -11.133354    -7.101450     0.501669 H          1 UNL1 0.000
    50 H     -10.452078    -6.166188    -1.654752 H          1 UNL1 0.000
    51 H      -8.497825    -7.325390    -2.642386 H          1 UNL1 0.000
    52 H      -9.087489    -8.430653    -4.746440 H          1 UNL1 0.000
    53 H      -9.361245    -7.109847    -6.830194 H          1 UNL1 0.000
    54 H      -9.015635    -4.653363    -6.777446 H          1 UNL1 0.000
    55 H      -8.480525    -3.521257    -4.694453 H          1 UNL1 0.000
    56 H      -3.842404     0.151039    -4.071733 H          1 UNL1 0.000
    57 H      -1.380748     0.217624    -4.062429 H          1 UNL1 0.000
    58 H      -3.897460     0.581630     0.204041 H          1 UNL1 0.000
    59 H       0.753535     0.413433    -2.815465 H          1 UNL1 0.000
    60 H       1.966893     0.592138    -0.702760 H          1 UNL1 0.000
    61 H      -1.752843     0.632700     1.461893 H          1 UNL1 0.000
    62 C       0.928673     0.715388     1.816005 C          1 UNL1 0.000
    63 N       0.601705    -0.218909     2.747281 N          1 UNL1 0.000
    64 C       1.299507    -0.226994     3.911614 C          1 UNL1 0.000
    65 C       2.309329     0.677752     4.192615 C          1 UNL1 0.000
    66 C       2.626146     1.653183     3.248219 C          1 UNL1 0.000
    67 C       1.924664     1.668605     2.042099 C          1 UNL1 0.000
    68 N       3.028449     0.593504     5.453337 N          1 UNL1 0.000
    69 O       2.548996    -0.119523     6.344393 O          1 UNL1 0.000
    70 O       4.080427     1.241065     5.556336 O          1 UNL1 0.000
    71 H       1.008455    -1.012158     4.605196 H          1 UNL1 0.000
    72 H       3.403604     2.391355     3.429740 H          1 UNL1 0.000
    73 H       2.153073     2.418893     1.290304 H          1 UNL1 0.000
@<TRIPOS>BOND
     1      1      2   2
     2      2      3   1
     3      3      4   2
     4      4      5   1
     5      5      6   2
     6      6      1   1
     7      4      7   1
     8      7      8   1
     9      8      9   2
    10      9     10   1
    11     10     11   2
    12     11     12   1
    13     12     13   2
    14     13      8   1
    15     25     26   2
    16     24     25   1
    17     23     24   2
    18     22     23   1
    19     21     22   2
    20     21     26   1
    21     19     20   2
    22     18     19   1
    23     17     18   2
    24     16     17   1
    25     15     16   2
    26     15     20   1
    27     14     15   1
    28     14     21   1
    29     11     14   1
    30     27     28   2
    31     28     29   1
    32     29     30   2
    33     30     31   1
    34     31     32   2
    35     32     27   1
    36     30     33   1
    37     33     34   2
    38     34     35   1
    39     35     36   2
    40     36     31   1
    41      7     27   1
    42      1     37   1
    43      2     38   1
    44      3     39   1
    45      5     40   1
    46      6     41   1
    47      9     42   1
    48     10     43   1
    49     12     44   1
    50     13     45   1
    51     16     46   1
    52     17     47   1
    53     18     48   1
    54     19     49   1
    55     20     50   1
    56     22     51   1
    57     23     52   1
    58     24     53   1
    59     25     54   1
    60     26     55   1
    61     28     56   1
    62     29     57   1
    63     32     58   1
    64     33     59   1
    65     34     60   1
    66     36     61   1
    67     62     63   2
    68     63     64   1
    69     64     65   2
    70     65     66   1
    71     66     67   2
    72     67     62   1
    73     68     69   2
    74     68     70   1
    75     65     68   1
    76     64     71   1
    77     66     72   1
    78     67     73   1
    79     35     62   1
