# Produced with molli package
@<TRIPOS>MOLECULE
J_5_O
71 77 0 0 0
SMALL
USER_CHARGES

@<TRIPOS>ATOM
     1 C      -7.340981     4.193909    -2.325532 C          1 UNL1 0.000
     2 C      -7.921233     3.082766    -2.929834 C          1 UNL1 0.000
     3 C      -7.315348     1.823988    -2.824924 C          1 UNL1 0.000
     4 C      -6.141665     1.636608    -2.076122 C          1 UNL1 0.000
     5 C      -5.562558     2.787120    -1.498809 C          1 UNL1 0.000
     6 C      -6.151650     4.049352    -1.622021 C          1 UNL1 0.000
     7 N      -5.504334     0.342382    -1.927294 N          1 UNL1 0.000
     8 C      -6.209400    -0.924964    -1.885551 C          1 UNL1 0.000
     9 C      -7.589921    -1.014820    -1.634667 C          1 UNL1 0.000
    10 C      -8.271255    -2.238840    -1.689838 C          1 UNL1 0.000
    11 C      -7.575068    -3.432934    -1.901596 C          1 UNL1 0.000
    12 C      -6.188581    -3.378999    -2.057883 C          1 UNL1 0.000
    13 C      -5.524471    -2.145699    -2.071937 C          1 UNL1 0.000
    14 N      -8.269463    -4.690075    -1.939183 N          1 UNL1 0.000
    15 C      -8.495897    -5.394705    -0.692328 C          1 UNL1 0.000
    16 C      -8.535752    -4.713690     0.541152 C          1 UNL1 0.000
    17 C      -8.779887    -5.383666     1.744935 C          1 UNL1 0.000
    18 C      -8.976953    -6.758995     1.748815 C          1 UNL1 0.000
    19 C      -8.903605    -7.465753     0.553282 C          1 UNL1 0.000
    20 C      -8.650159    -6.792922    -0.648492 C          1 UNL1 0.000
    21 C      -8.740871    -5.172530    -3.222826 C          1 UNL1 0.000
    22 C      -9.925256    -5.923440    -3.341404 C          1 UNL1 0.000
    23 C     -10.365285    -6.408004    -4.579465 C          1 UNL1 0.000
    24 C      -9.645537    -6.127799    -5.736252 C          1 UNL1 0.000
    25 C      -8.494007    -5.353515    -5.656683 C          1 UNL1 0.000
    26 C      -8.051973    -4.878294    -4.416530 C          1 UNL1 0.000
    27 C      -4.064027     0.332042    -1.947689 C          1 UNL1 0.000
    28 C      -3.385515     0.435647    -3.169046 C          1 UNL1 0.000
    29 C      -1.992223     0.465526    -3.198015 C          1 UNL1 0.000
    30 C      -1.253328     0.431135    -2.006860 C          1 UNL1 0.000
    31 C      -1.927530     0.328287    -0.766905 C          1 UNL1 0.000
    32 C      -3.330029     0.252704    -0.754147 C          1 UNL1 0.000
    33 C       0.143992     0.515306    -2.022750 C          1 UNL1 0.000
    34 C       0.869392     0.542638    -0.829623 C          1 UNL1 0.000
    35 C       0.220733     0.469565     0.412094 C          1 UNL1 0.000
    36 C      -1.178009     0.334066     0.423288 C          1 UNL1 0.000
    37 H      -7.807406     5.171497    -2.412394 H          1 UNL1 0.000
    38 H      -8.843715     3.193354    -3.493958 H          1 UNL1 0.000
    39 H      -7.770684     0.994824    -3.359202 H          1 UNL1 0.000
    40 H      -4.639863     2.716172    -0.928863 H          1 UNL1 0.000
    41 H      -5.677738     4.913394    -1.163583 H          1 UNL1 0.000
    42 H      -8.172488    -0.133637    -1.383720 H          1 UNL1 0.000
    43 H      -9.347306    -2.263035    -1.535735 H          1 UNL1 0.000
    44 H      -5.622692    -4.296466    -2.199109 H          1 UNL1 0.000
    45 H      -4.450642    -2.166509    -2.240000 H          1 UNL1 0.000
    46 H      -8.391427    -3.638819     0.592882 H          1 UNL1 0.000
    47 H      -8.816193    -4.823182     2.675522 H          1 UNL1 0.000
    48 H      -9.174045    -7.278894     2.682257 H          1 UNL1 0.000
    49 H      -9.036777    -8.544347     0.551347 H          1 UNL1 0.000
    50 H      -8.559404    -7.387280    -1.554009 H          1 UNL1 0.000
    51 H     -10.536255    -6.129884    -2.466412 H          1 UNL1 0.000
    52 H     -11.275412    -6.999333    -4.636362 H          1 UNL1 0.000
    53 H      -9.985717    -6.502651    -6.697834 H          1 UNL1 0.000
    54 H      -7.931915    -5.117346    -6.556659 H          1 UNL1 0.000
    55 H      -7.142332    -4.285659    -4.404802 H          1 UNL1 0.000
    56 H      -3.948800     0.489797    -4.097075 H          1 UNL1 0.000
    57 H      -1.488825     0.539539    -4.159434 H          1 UNL1 0.000
    58 H      -3.867696     0.175252     0.188701 H          1 UNL1 0.000
    59 H       0.682471     0.576788    -2.966116 H          1 UNL1 0.000
    60 H       1.954045     0.616597    -0.874762 H          1 UNL1 0.000
    61 H      -1.687735     0.261254     1.384009 H          1 UNL1 0.000
    62 C       0.980336     0.558631     1.664833 C          1 UNL1 0.000
    63 N       0.838173    -0.479514     2.524254 N          1 UNL1 0.000
    64 C       1.547193    -0.434931     3.674073 C          1 UNL1 0.000
    65 C       2.385212     0.609760     4.026471 C          1 UNL1 0.000
    66 C       2.506178     1.677377     3.147147 C          1 UNL1 0.000
    67 C       1.798700     1.652732     1.948442 C          1 UNL1 0.000
    68 H       1.420400    -1.293766     4.326963 H          1 UNL1 0.000
    69 H       2.928375     0.592099     4.964488 H          1 UNL1 0.000
    70 H       3.144632     2.521952     3.389535 H          1 UNL1 0.000
    71 H       1.876127     2.481948     1.252227 H          1 UNL1 0.000
@<TRIPOS>BOND
     1      1      2   2
     2      2      3   1
     3      3      4   2
     4      4      5   1
     5      5      6   2
     6      6      1   1
     7      4      7   1
     8      7      8   1
     9      8      9   2
    10      9     10   1
    11     10     11   2
    12     11     12   1
    13     12     13   2
    14     13      8   1
    15     25     26   2
    16     24     25   1
    17     23     24   2
    18     22     23   1
    19     21     22   2
    20     21     26   1
    21     19     20   2
    22     18     19   1
    23     17     18   2
    24     16     17   1
    25     15     16   2
    26     15     20   1
    27     14     15   1
    28     14     21   1
    29     11     14   1
    30     27     28   2
    31     28     29   1
    32     29     30   2
    33     30     31   1
    34     31     32   2
    35     32     27   1
    36     30     33   1
    37     33     34   2
    38     34     35   1
    39     35     36   2
    40     36     31   1
    41      7     27   1
    42      1     37   1
    43      2     38   1
    44      3     39   1
    45      5     40   1
    46      6     41   1
    47      9     42   1
    48     10     43   1
    49     12     44   1
    50     13     45   1
    51     16     46   1
    52     17     47   1
    53     18     48   1
    54     19     49   1
    55     20     50   1
    56     22     51   1
    57     23     52   1
    58     24     53   1
    59     25     54   1
    60     26     55   1
    61     28     56   1
    62     29     57   1
    63     32     58   1
    64     33     59   1
    65     34     60   1
    66     36     61   1
    67     62     63   2
    68     63     64   1
    69     64     65   2
    70     65     66   1
    71     66     67   2
    72     67     62   1
    73     64     68   1
    74     65     69   1
    75     66     70   1
    76     67     71   1
    77     35     62   1
