# Produced with molli package
@<TRIPOS>MOLECULE
J_5_S
77 83 0 0 0
SMALL
USER_CHARGES

@<TRIPOS>ATOM
     1 C      -7.327643     4.205332    -1.758071 C          1 UNL1 0.000
     2 C      -7.936726     3.094819    -1.182716 C          1 UNL1 0.000
     3 C      -7.299577     1.847357    -1.208078 C          1 UNL1 0.000
     4 C      -6.067003     1.665802    -1.857470 C          1 UNL1 0.000
     5 C      -5.456168     2.819576    -2.394042 C          1 UNL1 0.000
     6 C      -6.076029     4.072423    -2.345934 C          1 UNL1 0.000
     7 N      -5.419177     0.372324    -1.962971 N          1 UNL1 0.000
     8 C      -6.119926    -0.895171    -2.082959 C          1 UNL1 0.000
     9 C      -7.487079    -0.982429    -2.397868 C          1 UNL1 0.000
    10 C      -8.168676    -2.207803    -2.398143 C          1 UNL1 0.000
    11 C      -7.481424    -3.408036    -2.192076 C          1 UNL1 0.000
    12 C      -6.100152    -3.355458    -1.990065 C          1 UNL1 0.000
    13 C      -5.440672    -2.121018    -1.906846 C          1 UNL1 0.000
    14 N      -8.183357    -4.664738    -2.175419 N          1 UNL1 0.000
    15 C      -8.597247    -5.190044    -0.882571 C          1 UNL1 0.000
    16 C      -7.885604    -4.887139     0.297636 C          1 UNL1 0.000
    17 C      -8.262465    -5.400886     1.544497 C          1 UNL1 0.000
    18 C      -9.371196    -6.230065     1.649265 C          1 UNL1 0.000
    19 C     -10.119439    -6.516409     0.513165 C          1 UNL1 0.000
    20 C      -9.748976    -5.984508    -0.729778 C          1 UNL1 0.000
    21 C      -8.506780    -5.298462    -3.443121 C          1 UNL1 0.000
    22 C      -8.742227    -6.682408    -3.547848 C          1 UNL1 0.000
    23 C      -9.119985    -7.277853    -4.759059 C          1 UNL1 0.000
    24 C      -9.225023    -6.510684    -5.913368 C          1 UNL1 0.000
    25 C      -8.928122    -5.155301    -5.860612 C          1 UNL1 0.000
    26 C      -8.566291    -4.562452    -4.644876 C          1 UNL1 0.000
    27 C      -3.978208     0.361616    -1.953333 C          1 UNL1 0.000
    28 C      -3.265108     0.247488    -3.152715 C          1 UNL1 0.000
    29 C      -1.870459     0.268388    -3.143579 C          1 UNL1 0.000
    30 C      -1.163467     0.367344    -1.934997 C          1 UNL1 0.000
    31 C      -1.871472     0.454150    -0.714246 C          1 UNL1 0.000
    32 C      -3.277049     0.469314    -0.740507 C          1 UNL1 0.000
    33 C       0.237289     0.369072    -1.916740 C          1 UNL1 0.000
    34 C       0.934648     0.418465    -0.707599 C          1 UNL1 0.000
    35 C       0.252494     0.473513     0.514649 C          1 UNL1 0.000
    36 C      -1.151627     0.507961     0.495519 C          1 UNL1 0.000
    37 H      -7.820730     5.173425    -1.737997 H          1 UNL1 0.000
    38 H      -8.909081     3.195869    -0.707455 H          1 UNL1 0.000
    39 H      -7.785670     1.019560    -0.699124 H          1 UNL1 0.000
    40 H      -4.486254     2.759844    -2.880502 H          1 UNL1 0.000
    41 H      -5.579043     4.937439    -2.777313 H          1 UNL1 0.000
    42 H      -8.063667    -0.099304    -2.653706 H          1 UNL1 0.000
    43 H      -9.239995    -2.225614    -2.584145 H          1 UNL1 0.000
    44 H      -5.537637    -4.275641    -1.851501 H          1 UNL1 0.000
    45 H      -4.376125    -2.145231    -1.687522 H          1 UNL1 0.000
    46 H      -7.007907    -4.249495     0.277682 H          1 UNL1 0.000
    47 H      -7.682106    -5.149847     2.428790 H          1 UNL1 0.000
    48 H      -9.658274    -6.638872     2.614195 H          1 UNL1 0.000
    49 H     -11.000320    -7.148503     0.589939 H          1 UNL1 0.000
    50 H     -10.396110    -6.192420    -1.577374 H          1 UNL1 0.000
    51 H      -8.625484    -7.331353    -2.684019 H          1 UNL1 0.000
    52 H      -9.326973    -8.344235    -4.796074 H          1 UNL1 0.000
    53 H      -9.520851    -6.968975    -6.853018 H          1 UNL1 0.000
    54 H      -8.979831    -4.548943    -6.761332 H          1 UNL1 0.000
    55 H      -8.346026    -3.500072    -4.666580 H          1 UNL1 0.000
    56 H      -3.801162     0.163358    -4.094614 H          1 UNL1 0.000
    57 H      -1.338881     0.197440    -4.089788 H          1 UNL1 0.000
    58 H      -3.842638     0.544124     0.185837 H          1 UNL1 0.000
    59 H       0.801470     0.318382    -2.845342 H          1 UNL1 0.000
    60 H       2.022919     0.405163    -0.724463 H          1 UNL1 0.000
    61 H      -1.692769     0.547985     1.439876 H          1 UNL1 0.000
    62 C       0.998209     0.460067     1.778111 C          1 UNL1 0.000
    63 C       1.662493    -0.700738     2.196386 C          1 UNL1 0.000
    64 C       2.394478    -0.718869     3.387884 C          1 UNL1 0.000
    65 C       2.486531     0.426251     4.191660 C          1 UNL1 0.000
    66 C       1.826079     1.588540     3.779902 C          1 UNL1 0.000
    67 C       1.085777     1.600736     2.587312 C          1 UNL1 0.000
    68 C       3.298556     0.325050     5.446583 C          1 UNL1 0.000
    69 C       3.478796     1.511832     6.359394 C          1 UNL1 0.000
    70 O       3.841150    -0.743052     5.725492 O          1 UNL1 0.000
    71 H       1.612067    -1.606576     1.594331 H          1 UNL1 0.000
    72 H       2.897279    -1.639365     3.681510 H          1 UNL1 0.000
    73 H       1.862852     2.509174     4.351257 H          1 UNL1 0.000
    74 H       0.585863     2.519273     2.283358 H          1 UNL1 0.000
    75 H       3.236507     1.202133     7.380777 H          1 UNL1 0.000
    76 H       2.841593     2.360382     6.121719 H          1 UNL1 0.000
    77 H       4.522820     1.834493     6.315062 H          1 UNL1 0.000
@<TRIPOS>BOND
     1      1      2   2
     2      2      3   1
     3      3      4   2
     4      4      5   1
     5      5      6   2
     6      6      1   1
     7      4      7   1
     8      7      8   1
     9      8      9   2
    10      9     10   1
    11     10     11   2
    12     11     12   1
    13     12     13   2
    14     13      8   1
    15     25     26   2
    16     24     25   1
    17     23     24   2
    18     22     23   1
    19     21     22   2
    20     21     26   1
    21     19     20   2
    22     18     19   1
    23     17     18   2
    24     16     17   1
    25     15     16   2
    26     15     20   1
    27     14     15   1
    28     14     21   1
    29     11     14   1
    30     27     28   2
    31     28     29   1
    32     29     30   2
    33     30     31   1
    34     31     32   2
    35     32     27   1
    36     30     33   1
    37     33     34   2
    38     34     35   1
    39     35     36   2
    40     36     31   1
    41      7     27   1
    42      1     37   1
    43      2     38   1
    44      3     39   1
    45      5     40   1
    46      6     41   1
    47      9     42   1
    48     10     43   1
    49     12     44   1
    50     13     45   1
    51     16     46   1
    52     17     47   1
    53     18     48   1
    54     19     49   1
    55     20     50   1
    56     22     51   1
    57     23     52   1
    58     24     53   1
    59     25     54   1
    60     26     55   1
    61     28     56   1
    62     29     57   1
    63     32     58   1
    64     33     59   1
    65     34     60   1
    66     36     61   1
    67     62     63   2
    68     63     64   1
    69     64     65   2
    70     65     66   1
    71     66     67   2
    72     67     62   1
    73     65     68   1
    74     68     69   1
    75     68     70   2
    76     63     71   1
    77     64     72   1
    78     66     73   1
    79     67     74   1
    80     69     75   1
    81     69     76   1
    82     69     77   1
    83     35     62   1
