# Produced with molli package
@<TRIPOS>MOLECULE
J_6_T
75 81 0 0 0
SMALL
USER_CHARGES

@<TRIPOS>ATOM
     1 C      -5.771224     4.214007     0.784549 C          1 UNL1 0.000
     2 C      -6.427866     3.098435     1.292325 C          1 UNL1 0.000
     3 C      -5.810651     1.841995     1.258605 C          1 UNL1 0.000
     4 C      -4.548236     1.656834     0.667394 C          1 UNL1 0.000
     5 C      -3.892072     2.813680     0.197980 C          1 UNL1 0.000
     6 C      -4.493792     4.075445     0.255378 C          1 UNL1 0.000
     7 N      -3.914494     0.353478     0.571532 N          1 UNL1 0.000
     8 C      -4.633617    -0.900689     0.438552 C          1 UNL1 0.000
     9 C      -5.978343    -0.958947     0.035658 C          1 UNL1 0.000
    10 C      -6.697980    -2.160131     0.043591 C          1 UNL1 0.000
    11 C      -6.063965    -3.371361     0.336002 C          1 UNL1 0.000
    12 C      -4.695782    -3.351930     0.623875 C          1 UNL1 0.000
    13 C      -4.003006    -2.135482     0.702081 C          1 UNL1 0.000
    14 N      -6.808606    -4.603558     0.375109 N          1 UNL1 0.000
    15 C      -7.262705    -5.086466     1.674108 C          1 UNL1 0.000
    16 C      -6.662986    -4.649635     2.875890 C          1 UNL1 0.000
    17 C      -7.077408    -5.116754     4.129808 C          1 UNL1 0.000
    18 C      -8.114546    -6.034195     4.222567 C          1 UNL1 0.000
    19 C      -8.757354    -6.454206     3.064437 C          1 UNL1 0.000
    20 C      -8.351816    -5.967471     1.813181 C          1 UNL1 0.000
    21 C      -7.114976    -5.264237    -0.882964 C          1 UNL1 0.000
    22 C      -7.266211    -6.660401    -0.973416 C          1 UNL1 0.000
    23 C      -7.638455    -7.285959    -2.171252 C          1 UNL1 0.000
    24 C      -7.820942    -6.534620    -3.326668 C          1 UNL1 0.000
    25 C      -7.603270    -5.164126    -3.289895 C          1 UNL1 0.000
    26 C      -7.245650    -4.542794    -2.087568 C          1 UNL1 0.000
    27 C      -2.465149     0.315529     0.636815 C          1 UNL1 0.000
    28 C      -1.753245     0.202242    -0.566952 C          1 UNL1 0.000
    29 C      -0.363434     0.223378    -0.562295 C          1 UNL1 0.000
    30 C       0.351817     0.337075     0.641694 C          1 UNL1 0.000
    31 C      -0.350956     0.408807     1.880665 C          1 UNL1 0.000
    32 C      -1.774149     0.403260     1.879298 C          1 UNL1 0.000
    33 C       0.311873     0.475763     3.130377 C          1 UNL1 0.000
    34 C      -0.382143     0.530683     4.338948 C          1 UNL1 0.000
    35 C      -1.767239     0.522919     4.334161 C          1 UNL1 0.000
    36 C      -2.450023     0.461688     3.120718 C          1 UNL1 0.000
    37 H      -6.247011     5.190413     0.813959 H          1 UNL1 0.000
    38 H      -7.420102     3.202084     1.723780 H          1 UNL1 0.000
    39 H      -6.335461     1.010008     1.719865 H          1 UNL1 0.000
    40 H      -2.897802     2.752256    -0.235932 H          1 UNL1 0.000
    41 H      -3.960500     4.945069    -0.119638 H          1 UNL1 0.000
    42 H      -6.506260    -0.067438    -0.288540 H          1 UNL1 0.000
    43 H      -7.758267    -2.149346    -0.197178 H          1 UNL1 0.000
    44 H      -4.174884    -4.281224     0.842143 H          1 UNL1 0.000
    45 H      -2.957664    -2.178466     0.998035 H          1 UNL1 0.000
    46 H      -5.849085    -3.931732     2.872867 H          1 UNL1 0.000
    47 H      -6.582983    -4.757779     5.028996 H          1 UNL1 0.000
    48 H      -8.430670    -6.406138     5.193217 H          1 UNL1 0.000
    49 H      -9.585305    -7.155537     3.128611 H          1 UNL1 0.000
    50 H      -8.928843    -6.283132     0.949138 H          1 UNL1 0.000
    51 H      -7.087953    -7.291916    -0.106921 H          1 UNL1 0.000
    52 H      -7.782170    -8.362922    -2.197421 H          1 UNL1 0.000
    53 H      -8.115425    -7.015528    -4.255337 H          1 UNL1 0.000
    54 H      -7.715489    -4.567513    -4.191674 H          1 UNL1 0.000
    55 H      -7.091972    -3.470007    -2.123474 H          1 UNL1 0.000
    56 H      -2.290666     0.126533    -1.508778 H          1 UNL1 0.000
    57 H       0.169763     0.162327    -1.509215 H          1 UNL1 0.000
    58 H       1.400305     0.475480     3.176985 H          1 UNL1 0.000
    59 H       0.162539     0.574943     5.277834 H          1 UNL1 0.000
    60 H      -2.319791     0.560191     5.268586 H          1 UNL1 0.000
    61 H      -3.538399     0.447150     3.151439 H          1 UNL1 0.000
    62 C       1.823140     0.378777     0.568247 C          1 UNL1 0.000
    63 C       2.567983    -0.801070     0.434624 C          1 UNL1 0.000
    64 C       3.964454    -0.763048     0.381775 C          1 UNL1 0.000
    65 C       4.643668     0.457752     0.452461 C          1 UNL1 0.000
    66 C       3.905826     1.639183     0.585118 C          1 UNL1 0.000
    67 C       2.509734     1.599973     0.637427 C          1 UNL1 0.000
    68 C       6.142567     0.507902     0.426598 C          1 UNL1 0.000
    69 H       2.059865    -1.761786     0.382104 H          1 UNL1 0.000
    70 H       4.515409    -1.695988     0.287968 H          1 UNL1 0.000
    71 H       4.413599     2.598801     0.651897 H          1 UNL1 0.000
    72 H       1.955229     2.530448     0.742939 H          1 UNL1 0.000
    73 H       6.525948     0.766106     1.418817 H          1 UNL1 0.000
    74 H       6.486629     1.253859    -0.297241 H          1 UNL1 0.000
    75 H       6.570090    -0.456832     0.134221 H          1 UNL1 0.000
@<TRIPOS>BOND
     1      1      2   2
     2      2      3   1
     3      3      4   2
     4      4      5   1
     5      5      6   2
     6      6      1   1
     7      4      7   1
     8      7      8   1
     9      8      9   2
    10      9     10   1
    11     10     11   2
    12     11     12   1
    13     12     13   2
    14     13      8   1
    15     25     26   2
    16     24     25   1
    17     23     24   2
    18     22     23   1
    19     21     22   2
    20     21     26   1
    21     19     20   2
    22     18     19   1
    23     17     18   2
    24     16     17   1
    25     15     16   2
    26     15     20   1
    27     14     15   1
    28     14     21   1
    29     11     14   1
    30     27     28   2
    31     28     29   1
    32     29     30   2
    33     30     31   1
    34     31     32   2
    35     32     27   1
    36     31     33   1
    37     33     34   2
    38     34     35   1
    39     35     36   2
    40     36     32   1
    41      7     27   1
    42      1     37   1
    43      2     38   1
    44      3     39   1
    45      5     40   1
    46      6     41   1
    47      9     42   1
    48     10     43   1
    49     12     44   1
    50     13     45   1
    51     16     46   1
    52     17     47   1
    53     18     48   1
    54     19     49   1
    55     20     50   1
    56     22     51   1
    57     23     52   1
    58     24     53   1
    59     25     54   1
    60     26     55   1
    61     28     56   1
    62     29     57   1
    63     33     58   1
    64     34     59   1
    65     35     60   1
    66     36     61   1
    67     62     63   2
    68     63     64   1
    69     64     65   2
    70     65     66   1
    71     66     67   2
    72     67     62   1
    73     65     68   1
    74     63     69   1
    75     64     70   1
    76     66     71   1
    77     67     72   1
    78     68     73   1
    79     68     74   1
    80     68     75   1
    81     30     62   1
