# Produced with molli package
@<TRIPOS>MOLECULE
J_6_O
71 77 0 0 0
SMALL
USER_CHARGES

@<TRIPOS>ATOM
     1 C      -5.972298     4.270545     0.262211 C          1 UNL1 0.000
     2 C      -6.636171     3.121557    -0.155451 C          1 UNL1 0.000
     3 C      -6.004630     1.873076    -0.080608 C          1 UNL1 0.000
     4 C      -4.707855     1.736050     0.444899 C          1 UNL1 0.000
     5 C      -4.053107     2.923783     0.836293 C          1 UNL1 0.000
     6 C      -4.674606     4.173602     0.747626 C          1 UNL1 0.000
     7 N      -4.045840     0.449435     0.550260 N          1 UNL1 0.000
     8 C      -4.742661    -0.818853     0.594918 C          1 UNL1 0.000
     9 C      -5.987462    -0.958781     1.232700 C          1 UNL1 0.000
    10 C      -6.665427    -2.185645     1.250949 C          1 UNL1 0.000
    11 C      -6.113067    -3.319192     0.639341 C          1 UNL1 0.000
    12 C      -4.852939    -3.205046     0.041761 C          1 UNL1 0.000
    13 C      -4.176271    -1.978849     0.031855 C          1 UNL1 0.000
    14 N      -6.824010    -4.572627     0.625793 N          1 UNL1 0.000
    15 C      -7.243821    -5.142635     1.887417 C          1 UNL1 0.000
    16 C      -6.458364    -4.978599     3.045516 C          1 UNL1 0.000
    17 C      -6.849018    -5.521968     4.272754 C          1 UNL1 0.000
    18 C      -8.032975    -6.246357     4.367733 C          1 UNL1 0.000
    19 C      -8.832001    -6.415337     3.240255 C          1 UNL1 0.000
    20 C      -8.446576    -5.859292     2.015634 C          1 UNL1 0.000
    21 C      -7.120337    -5.198646    -0.646669 C          1 UNL1 0.000
    22 C      -7.239652    -6.593978    -0.779181 C          1 UNL1 0.000
    23 C      -7.562404    -7.183756    -2.007105 C          1 UNL1 0.000
    24 C      -7.745391    -6.392206    -3.137160 C          1 UNL1 0.000
    25 C      -7.601882    -5.012150    -3.041825 C          1 UNL1 0.000
    26 C      -7.295771    -4.423391    -1.810635 C          1 UNL1 0.000
    27 C      -2.597953     0.430663     0.603315 C          1 UNL1 0.000
    28 C      -1.891639     0.515221    -0.606720 C          1 UNL1 0.000
    29 C      -0.502790     0.528346    -0.607180 C          1 UNL1 0.000
    30 C       0.218337     0.486984     0.598642 C          1 UNL1 0.000
    31 C      -0.479793     0.412777     1.840463 C          1 UNL1 0.000
    32 C      -1.900070     0.378625     1.844083 C          1 UNL1 0.000
    33 C       0.189906     0.387776     3.088781 C          1 UNL1 0.000
    34 C      -0.500326     0.351308     4.300709 C          1 UNL1 0.000
    35 C      -1.884393     0.325335     4.300756 C          1 UNL1 0.000
    36 C      -2.572741     0.332706     3.088681 C          1 UNL1 0.000
    37 H      -6.460498     5.239323     0.200972 H          1 UNL1 0.000
    38 H      -7.646878     3.193047    -0.548879 H          1 UNL1 0.000
    39 H      -6.544927     1.010562    -0.460440 H          1 UNL1 0.000
    40 H      -3.041574     2.899401     1.233024 H          1 UNL1 0.000
    41 H      -4.139358     5.065533     1.062816 H          1 UNL1 0.000
    42 H      -6.445315    -0.113526     1.740126 H          1 UNL1 0.000
    43 H      -7.639281    -2.249471     1.730656 H          1 UNL1 0.000
    44 H      -4.384370    -4.076348    -0.409961 H          1 UNL1 0.000
    45 H      -3.200207    -1.948250    -0.444457 H          1 UNL1 0.000
    46 H      -5.517419    -4.434756     2.998798 H          1 UNL1 0.000
    47 H      -6.222740    -5.380570     5.149687 H          1 UNL1 0.000
    48 H      -8.334035    -6.675114     5.319850 H          1 UNL1 0.000
    49 H      -9.760458    -6.975819     3.311299 H          1 UNL1 0.000
    50 H      -9.108136    -5.981520     1.161726 H          1 UNL1 0.000
    51 H      -7.072503    -7.245109     0.075171 H          1 UNL1 0.000
    52 H      -7.666554    -8.263390    -2.077920 H          1 UNL1 0.000
    53 H      -7.994628    -6.849777    -4.090905 H          1 UNL1 0.000
    54 H      -7.733597    -4.387523    -3.921480 H          1 UNL1 0.000
    55 H      -7.213469    -3.339946    -1.769241 H          1 UNL1 0.000
    56 H      -2.434543     0.561170    -1.547660 H          1 UNL1 0.000
    57 H       0.028113     0.574878    -1.556348 H          1 UNL1 0.000
    58 H       1.277791     0.395034     3.130332 H          1 UNL1 0.000
    59 H       0.048507     0.341353     5.238333 H          1 UNL1 0.000
    60 H      -2.433795     0.298791     5.237636 H          1 UNL1 0.000
    61 H      -3.660239     0.315613     3.122149 H          1 UNL1 0.000
    62 C       1.683836     0.555666     0.531058 C          1 UNL1 0.000
    63 N       2.330763    -0.633685     0.477471 N          1 UNL1 0.000
    64 C       3.680514    -0.602403     0.444332 C          1 UNL1 0.000
    65 C       4.425933     0.564657     0.458591 C          1 UNL1 0.000
    66 C       3.747965     1.776646     0.504406 C          1 UNL1 0.000
    67 C       2.356519     1.776530     0.539267 C          1 UNL1 0.000
    68 H       4.163150    -1.574886     0.408054 H          1 UNL1 0.000
    69 H       5.509214     0.528926     0.435171 H          1 UNL1 0.000
    70 H       4.296343     2.714065     0.517435 H          1 UNL1 0.000
    71 H       1.805754     2.710669     0.583425 H          1 UNL1 0.000
@<TRIPOS>BOND
     1      1      2   2
     2      2      3   1
     3      3      4   2
     4      4      5   1
     5      5      6   2
     6      6      1   1
     7      4      7   1
     8      7      8   1
     9      8      9   2
    10      9     10   1
    11     10     11   2
    12     11     12   1
    13     12     13   2
    14     13      8   1
    15     25     26   2
    16     24     25   1
    17     23     24   2
    18     22     23   1
    19     21     22   2
    20     21     26   1
    21     19     20   2
    22     18     19   1
    23     17     18   2
    24     16     17   1
    25     15     16   2
    26     15     20   1
    27     14     15   1
    28     14     21   1
    29     11     14   1
    30     27     28   2
    31     28     29   1
    32     29     30   2
    33     30     31   1
    34     31     32   2
    35     32     27   1
    36     31     33   1
    37     33     34   2
    38     34     35   1
    39     35     36   2
    40     36     32   1
    41      7     27   1
    42      1     37   1
    43      2     38   1
    44      3     39   1
    45      5     40   1
    46      6     41   1
    47      9     42   1
    48     10     43   1
    49     12     44   1
    50     13     45   1
    51     16     46   1
    52     17     47   1
    53     18     48   1
    54     19     49   1
    55     20     50   1
    56     22     51   1
    57     23     52   1
    58     24     53   1
    59     25     54   1
    60     26     55   1
    61     28     56   1
    62     29     57   1
    63     33     58   1
    64     34     59   1
    65     35     60   1
    66     36     61   1
    67     62     63   2
    68     63     64   1
    69     64     65   2
    70     65     66   1
    71     66     67   2
    72     67     62   1
    73     64     68   1
    74     65     69   1
    75     66     70   1
    76     67     71   1
    77     30     62   1
