# Produced with molli package
@<TRIPOS>MOLECULE
J_6_M
73 79 0 0 0
SMALL
USER_CHARGES

@<TRIPOS>ATOM
     1 C      -5.919841     4.194697     0.670684 C          1 UNL1 0.000
     2 C      -6.610576     3.077640     1.127664 C          1 UNL1 0.000
     3 C      -5.993144     1.818886     1.140310 C          1 UNL1 0.000
     4 C      -4.692128     1.630804     0.643475 C          1 UNL1 0.000
     5 C      -4.006764     2.792681     0.223166 C          1 UNL1 0.000
     6 C      -4.608145     4.056008     0.237895 C          1 UNL1 0.000
     7 N      -4.041672     0.330267     0.602989 N          1 UNL1 0.000
     8 C      -4.731049    -0.947536     0.530974 C          1 UNL1 0.000
     9 C      -6.053352    -1.075128     0.071883 C          1 UNL1 0.000
    10 C      -6.724331    -2.307177     0.085659 C          1 UNL1 0.000
    11 C      -6.074115    -3.471296     0.511649 C          1 UNL1 0.000
    12 C      -4.734806    -3.383168     0.898762 C          1 UNL1 0.000
    13 C      -4.078942    -2.144388     0.904418 C          1 UNL1 0.000
    14 N      -6.766383    -4.736608     0.532600 N          1 UNL1 0.000
    15 C      -7.044354    -5.337505     1.827304 C          1 UNL1 0.000
    16 C      -7.074719    -4.545369     2.997241 C          1 UNL1 0.000
    17 C      -7.384733    -5.084430     4.251444 C          1 UNL1 0.000
    18 C      -7.687809    -6.434247     4.371311 C          1 UNL1 0.000
    19 C      -7.631715    -7.249572     3.246058 C          1 UNL1 0.000
    20 C      -7.282947    -6.712312     1.998101 C          1 UNL1 0.000
    21 C      -7.191778    -5.287911    -0.743169 C          1 UNL1 0.000
    22 C      -8.276905    -6.170381    -0.876217 C          1 UNL1 0.000
    23 C      -8.636417    -6.710289    -2.119264 C          1 UNL1 0.000
    24 C      -7.955987    -6.334358    -3.272631 C          1 UNL1 0.000
    25 C      -6.913701    -5.421443    -3.184301 C          1 UNL1 0.000
    26 C      -6.531266    -4.917505    -1.936806 C          1 UNL1 0.000
    27 C      -2.590549     0.318255     0.662448 C          1 UNL1 0.000
    28 C      -1.881360     0.211313    -0.544171 C          1 UNL1 0.000
    29 C      -0.492526     0.262980    -0.546501 C          1 UNL1 0.000
    30 C       0.226274     0.399238     0.653646 C          1 UNL1 0.000
    31 C      -0.474118     0.472261     1.894935 C          1 UNL1 0.000
    32 C      -1.895206     0.437855     1.899825 C          1 UNL1 0.000
    33 C       0.192244     0.571010     3.141236 C          1 UNL1 0.000
    34 C      -0.500332     0.630070     4.351010 C          1 UNL1 0.000
    35 C      -1.884354     0.595359     4.351244 C          1 UNL1 0.000
    36 C      -2.570259     0.502915     3.141649 C          1 UNL1 0.000
    37 H      -6.395602     5.171618     0.666793 H          1 UNL1 0.000
    38 H      -7.631188     3.183035     1.486767 H          1 UNL1 0.000
    39 H      -6.551948     0.993420     1.570666 H          1 UNL1 0.000
    40 H      -2.981660     2.739061    -0.132866 H          1 UNL1 0.000
    41 H      -4.045890     4.925503    -0.092768 H          1 UNL1 0.000
    42 H      -6.597031    -0.220591    -0.319167 H          1 UNL1 0.000
    43 H      -7.763476    -2.356209    -0.231738 H          1 UNL1 0.000
    44 H      -4.194128    -4.279798     1.192029 H          1 UNL1 0.000
    45 H      -3.040036    -2.139925     1.224321 H          1 UNL1 0.000
    46 H      -6.869564    -3.478630     2.952094 H          1 UNL1 0.000
    47 H      -7.397650    -4.441324     5.127675 H          1 UNL1 0.000
    48 H      -7.955389    -6.850422     5.338936 H          1 UNL1 0.000
    49 H      -7.855321    -8.309768     3.335553 H          1 UNL1 0.000
    50 H      -7.196408    -7.401326     1.163117 H          1 UNL1 0.000
    51 H      -8.882927    -6.446381    -0.018793 H          1 UNL1 0.000
    52 H      -9.458966    -7.418125    -2.183257 H          1 UNL1 0.000
    53 H      -8.243649    -6.742574    -4.237637 H          1 UNL1 0.000
    54 H      -6.389570    -5.099373    -4.080267 H          1 UNL1 0.000
    55 H      -5.694774    -4.222819    -1.915380 H          1 UNL1 0.000
    56 H      -2.422695     0.119991    -1.482790 H          1 UNL1 0.000
    57 H       0.036011     0.206419    -1.496521 H          1 UNL1 0.000
    58 H       1.279393     0.595158     3.186068 H          1 UNL1 0.000
    59 H       0.045660     0.699687     5.287922 H          1 UNL1 0.000
    60 H      -2.435316     0.636079     5.286791 H          1 UNL1 0.000
    61 H      -3.657770     0.469119     3.175537 H          1 UNL1 0.000
    62 C       1.696387     0.457011     0.576340 C          1 UNL1 0.000
    63 C       2.454067    -0.721299     0.495781 C          1 UNL1 0.000
    64 C       3.850416    -0.670957     0.442292 C          1 UNL1 0.000
    65 C       4.509135     0.561702     0.465809 C          1 UNL1 0.000
    66 C       3.765254     1.742932     0.538163 C          1 UNL1 0.000
    67 C       2.368666     1.689620     0.590844 C          1 UNL1 0.000
    68 C       5.942369     0.613296     0.420022 C          1 UNL1 0.000
    69 N       7.099967     0.654050     0.385016 N          1 UNL1 0.000
    70 H       1.954329    -1.688662     0.484843 H          1 UNL1 0.000
    71 H       4.415428    -1.599647     0.386896 H          1 UNL1 0.000
    72 H       4.263596     2.710532     0.557977 H          1 UNL1 0.000
    73 H       1.801748     2.617415     0.652823 H          1 UNL1 0.000
@<TRIPOS>BOND
     1      1      2   2
     2      2      3   1
     3      3      4   2
     4      4      5   1
     5      5      6   2
     6      6      1   1
     7      4      7   1
     8      7      8   1
     9      8      9   2
    10      9     10   1
    11     10     11   2
    12     11     12   1
    13     12     13   2
    14     13      8   1
    15     25     26   2
    16     24     25   1
    17     23     24   2
    18     22     23   1
    19     21     22   2
    20     21     26   1
    21     19     20   2
    22     18     19   1
    23     17     18   2
    24     16     17   1
    25     15     16   2
    26     15     20   1
    27     14     15   1
    28     14     21   1
    29     11     14   1
    30     27     28   2
    31     28     29   1
    32     29     30   2
    33     30     31   1
    34     31     32   2
    35     32     27   1
    36     31     33   1
    37     33     34   2
    38     34     35   1
    39     35     36   2
    40     36     32   1
    41      7     27   1
    42      1     37   1
    43      2     38   1
    44      3     39   1
    45      5     40   1
    46      6     41   1
    47      9     42   1
    48     10     43   1
    49     12     44   1
    50     13     45   1
    51     16     46   1
    52     17     47   1
    53     18     48   1
    54     19     49   1
    55     20     50   1
    56     22     51   1
    57     23     52   1
    58     24     53   1
    59     25     54   1
    60     26     55   1
    61     28     56   1
    62     29     57   1
    63     33     58   1
    64     34     59   1
    65     35     60   1
    66     36     61   1
    67     62     63   2
    68     63     64   1
    69     64     65   2
    70     65     66   1
    71     66     67   2
    72     67     62   1
    73     68     69   3
    74     65     68   1
    75     63     70   1
    76     64     71   1
    77     66     72   1
    78     67     73   1
    79     30     62   1
