# Produced with molli package
@<TRIPOS>MOLECULE
J_6_K
74 80 0 0 0
SMALL
USER_CHARGES

@<TRIPOS>ATOM
     1 C      -5.992453     4.228090     0.314166 C          1 UNL1 0.000
     2 C      -6.607697     3.085794    -0.188839 C          1 UNL1 0.000
     3 C      -5.973813     1.841542    -0.089224 C          1 UNL1 0.000
     4 C      -4.720078     1.706584     0.533051 C          1 UNL1 0.000
     5 C      -4.112386     2.884329     1.014079 C          1 UNL1 0.000
     6 C      -4.740711     4.129040     0.909933 C          1 UNL1 0.000
     7 N      -4.055444     0.424573     0.644985 N          1 UNL1 0.000
     8 C      -4.762624    -0.835906     0.664688 C          1 UNL1 0.000
     9 C      -6.002600    -0.970581     1.314454 C          1 UNL1 0.000
    10 C      -6.696185    -2.188213     1.317266 C          1 UNL1 0.000
    11 C      -6.168544    -3.312984     0.669212 C          1 UNL1 0.000
    12 C      -4.918439    -3.198685     0.048223 C          1 UNL1 0.000
    13 C      -4.221982    -1.984630     0.059734 C          1 UNL1 0.000
    14 N      -6.891975    -4.558501     0.636542 N          1 UNL1 0.000
    15 C      -7.318032    -5.158622     1.881152 C          1 UNL1 0.000
    16 C      -6.558659    -4.997948     3.056571 C          1 UNL1 0.000
    17 C      -6.956880    -5.577456     4.264781 C          1 UNL1 0.000
    18 C      -8.122964    -6.334096     4.323001 C          1 UNL1 0.000
    19 C      -8.895983    -6.501525     3.177352 C          1 UNL1 0.000
    20 C      -8.501930    -5.912135     1.971275 C          1 UNL1 0.000
    21 C      -7.156171    -5.175614    -0.645377 C          1 UNL1 0.000
    22 C      -7.163153    -6.572184    -0.807406 C          1 UNL1 0.000
    23 C      -7.428302    -7.155354    -2.051402 C          1 UNL1 0.000
    24 C      -7.675526    -6.353064    -3.162281 C          1 UNL1 0.000
    25 C      -7.656662    -4.968019    -3.031889 C          1 UNL1 0.000
    26 C      -7.400798    -4.386529    -1.786641 C          1 UNL1 0.000
    27 C      -2.608401     0.406413     0.676343 C          1 UNL1 0.000
    28 C      -1.921277     0.514089    -0.542716 C          1 UNL1 0.000
    29 C      -0.532791     0.530598    -0.567185 C          1 UNL1 0.000
    30 C       0.207238     0.471503     0.625047 C          1 UNL1 0.000
    31 C      -0.469958     0.383914     1.878000 C          1 UNL1 0.000
    32 C      -1.890405     0.337452     1.903799 C          1 UNL1 0.000
    33 C       0.218784     0.360247     3.115846 C          1 UNL1 0.000
    34 C      -0.452149     0.303520     4.337813 C          1 UNL1 0.000
    35 C      -1.835627     0.255144     4.358739 C          1 UNL1 0.000
    36 C      -2.542701     0.266668     3.157666 C          1 UNL1 0.000
    37 H      -6.483321     5.194348     0.235438 H          1 UNL1 0.000
    38 H      -7.580587     3.160085    -0.667681 H          1 UNL1 0.000
    39 H      -6.469967     0.979896    -0.527932 H          1 UNL1 0.000
    40 H      -3.138763     2.852417     1.495864 H          1 UNL1 0.000
    41 H      -4.247447     5.016514     1.297898 H          1 UNL1 0.000
    42 H      -6.441813    -0.126120     1.840229 H          1 UNL1 0.000
    43 H      -7.662895    -2.250074     1.811504 H          1 UNL1 0.000
    44 H      -4.473380    -4.062985    -0.439377 H          1 UNL1 0.000
    45 H      -3.256876    -1.951690    -0.437227 H          1 UNL1 0.000
    46 H      -5.631034    -4.430425     3.038971 H          1 UNL1 0.000
    47 H      -6.350190    -5.439496     5.155918 H          1 UNL1 0.000
    48 H      -8.429949    -6.790226     5.260448 H          1 UNL1 0.000
    49 H      -9.810254    -7.087742     3.219568 H          1 UNL1 0.000
    50 H      -9.141411    -6.038183     1.101075 H          1 UNL1 0.000
    51 H      -6.945181    -7.224414     0.034673 H          1 UNL1 0.000
    52 H      -7.435836    -8.237693    -2.150913 H          1 UNL1 0.000
    53 H      -7.879140    -6.806312    -4.128925 H          1 UNL1 0.000
    54 H      -7.844437    -4.335686    -3.895709 H          1 UNL1 0.000
    55 H      -7.410804    -3.301652    -1.712160 H          1 UNL1 0.000
    56 H      -2.479970     0.579230    -1.473440 H          1 UNL1 0.000
    57 H      -0.022561     0.604172    -1.525851 H          1 UNL1 0.000
    58 H       1.305994     0.399264     3.144210 H          1 UNL1 0.000
    59 H       0.109922     0.301383     5.267847 H          1 UNL1 0.000
    60 H      -2.369980     0.214954     5.303970 H          1 UNL1 0.000
    61 H      -3.629630     0.237695     3.207836 H          1 UNL1 0.000
    62 C       1.675029     0.529331     0.528123 C          1 UNL1 0.000
    63 C       2.430295    -0.646196     0.380961 C          1 UNL1 0.000
    64 C       3.825190    -0.594902     0.308497 C          1 UNL1 0.000
    65 C       4.470806     0.644986     0.385588 C          1 UNL1 0.000
    66 C       3.736858     1.828130     0.523855 C          1 UNL1 0.000
    67 C       2.342966     1.764552     0.590084 C          1 UNL1 0.000
    68 N       5.933236     0.703146     0.327412 N          1 UNL1 0.000
    69 O       6.529073    -0.269990    -0.151846 O          1 UNL1 0.000
    70 O       6.484091     1.725159     0.765083 O          1 UNL1 0.000
    71 H       1.928254    -1.611653     0.331680 H          1 UNL1 0.000
    72 H       4.387719    -1.520014     0.202217 H          1 UNL1 0.000
    73 H       4.229333     2.796647     0.581564 H          1 UNL1 0.000
    74 H       1.771113     2.685022     0.701253 H          1 UNL1 0.000
@<TRIPOS>BOND
     1      1      2   2
     2      2      3   1
     3      3      4   2
     4      4      5   1
     5      5      6   2
     6      6      1   1
     7      4      7   1
     8      7      8   1
     9      8      9   2
    10      9     10   1
    11     10     11   2
    12     11     12   1
    13     12     13   2
    14     13      8   1
    15     25     26   2
    16     24     25   1
    17     23     24   2
    18     22     23   1
    19     21     22   2
    20     21     26   1
    21     19     20   2
    22     18     19   1
    23     17     18   2
    24     16     17   1
    25     15     16   2
    26     15     20   1
    27     14     15   1
    28     14     21   1
    29     11     14   1
    30     27     28   2
    31     28     29   1
    32     29     30   2
    33     30     31   1
    34     31     32   2
    35     32     27   1
    36     31     33   1
    37     33     34   2
    38     34     35   1
    39     35     36   2
    40     36     32   1
    41      7     27   1
    42      1     37   1
    43      2     38   1
    44      3     39   1
    45      5     40   1
    46      6     41   1
    47      9     42   1
    48     10     43   1
    49     12     44   1
    50     13     45   1
    51     16     46   1
    52     17     47   1
    53     18     48   1
    54     19     49   1
    55     20     50   1
    56     22     51   1
    57     23     52   1
    58     24     53   1
    59     25     54   1
    60     26     55   1
    61     28     56   1
    62     29     57   1
    63     33     58   1
    64     34     59   1
    65     35     60   1
    66     36     61   1
    67     62     63   2
    68     63     64   1
    69     64     65   2
    70     65     66   1
    71     66     67   2
    72     67     62   1
    73     68     69   2
    74     68     70   1
    75     65     68   1
    76     63     71   1
    77     64     72   1
    78     66     73   1
    79     67     74   1
    80     30     62   1
