# Produced with molli package
@<TRIPOS>MOLECULE
J_6_Q
70 76 0 0 0
SMALL
USER_CHARGES

@<TRIPOS>ATOM
     1 C      -5.857633     4.145535     0.723319 C          1 UNL1 0.000
     2 C      -6.497688     3.031575     1.257697 C          1 UNL1 0.000
     3 C      -5.878967     1.776785     1.215739 C          1 UNL1 0.000
     4 C      -4.618509     1.601452     0.616838 C          1 UNL1 0.000
     5 C      -3.985185     2.750717     0.103186 C          1 UNL1 0.000
     6 C      -4.597034     4.007294     0.153252 C          1 UNL1 0.000
     7 N      -3.962846     0.310474     0.573060 N          1 UNL1 0.000
     8 C      -4.671217    -0.949946     0.502970 C          1 UNL1 0.000
     9 C      -5.944013    -1.056880    -0.083749 C          1 UNL1 0.000
    10 C      -6.642957    -2.270940    -0.094982 C          1 UNL1 0.000
    11 C      -6.079093    -3.425331     0.463738 C          1 UNL1 0.000
    12 C      -4.788999    -3.348202     0.998499 C          1 UNL1 0.000
    13 C      -4.096640    -2.132923     1.009927 C          1 UNL1 0.000
    14 N      -6.813281    -4.664749     0.496058 N          1 UNL1 0.000
    15 C      -7.085120    -5.271950     1.784581 C          1 UNL1 0.000
    16 C      -7.174661    -4.480515     2.949670 C          1 UNL1 0.000
    17 C      -7.440984    -5.043114     4.201943 C          1 UNL1 0.000
    18 C      -7.636481    -6.414093     4.319560 C          1 UNL1 0.000
    19 C      -7.541308    -7.222157     3.190218 C          1 UNL1 0.000
    20 C      -7.251531    -6.658986     1.940730 C          1 UNL1 0.000
    21 C      -7.266990    -5.225308    -0.759416 C          1 UNL1 0.000
    22 C      -8.451046    -5.975057    -0.862113 C          1 UNL1 0.000
    23 C      -8.865783    -6.514616    -2.085620 C          1 UNL1 0.000
    24 C      -8.121102    -6.289533    -3.240042 C          1 UNL1 0.000
    25 C      -6.959981    -5.527979    -3.172925 C          1 UNL1 0.000
    26 C      -6.536302    -5.008278    -1.946410 C          1 UNL1 0.000
    27 C      -2.517545     0.283190     0.661882 C          1 UNL1 0.000
    28 C      -1.789530     0.077052    -0.519612 C          1 UNL1 0.000
    29 C      -0.400959     0.080909    -0.494718 C          1 UNL1 0.000
    30 C       0.299129     0.273799     0.709370 C          1 UNL1 0.000
    31 C      -0.422230     0.427407     1.931163 C          1 UNL1 0.000
    32 C      -1.842130     0.445183     1.906344 C          1 UNL1 0.000
    33 C       0.222916     0.543365     3.188585 C          1 UNL1 0.000
    34 C      -0.491273     0.677346     4.379840 C          1 UNL1 0.000
    35 C      -1.874307     0.701828     4.350750 C          1 UNL1 0.000
    36 C      -2.538535     0.588000     3.130789 C          1 UNL1 0.000
    37 H      -6.335307     5.120983     0.759827 H          1 UNL1 0.000
    38 H      -7.476590     3.137126     1.718138 H          1 UNL1 0.000
    39 H      -6.389884     0.939561     1.683862 H          1 UNL1 0.000
    40 H      -3.003014     2.683561    -0.356628 H          1 UNL1 0.000
    41 H      -4.083983     4.874668    -0.253960 H          1 UNL1 0.000
    42 H      -6.415491    -0.194238    -0.547289 H          1 UNL1 0.000
    43 H      -7.641705    -2.308673    -0.523569 H          1 UNL1 0.000
    44 H      -4.315432    -4.237086     1.408623 H          1 UNL1 0.000
    45 H      -3.102325    -2.129140     1.449352 H          1 UNL1 0.000
    46 H      -7.048743    -3.401677     2.895994 H          1 UNL1 0.000
    47 H      -7.499185    -4.404774     5.079721 H          1 UNL1 0.000
    48 H      -7.855954    -6.851916     5.289711 H          1 UNL1 0.000
    49 H      -7.686079    -8.295769     3.279029 H          1 UNL1 0.000
    50 H      -7.145273    -7.327748     1.090750 H          1 UNL1 0.000
    51 H      -9.080054    -6.136925     0.009177 H          1 UNL1 0.000
    52 H      -9.777249    -7.104607    -2.134886 H          1 UNL1 0.000
    53 H      -8.447665    -6.701752    -4.191000 H          1 UNL1 0.000
    54 H      -6.377421    -5.337391    -4.070439 H          1 UNL1 0.000
    55 H      -5.612679    -4.434000    -1.927556 H          1 UNL1 0.000
    56 H      -2.314839    -0.065885    -1.460988 H          1 UNL1 0.000
    57 H       0.146656    -0.065092    -1.424689 H          1 UNL1 0.000
    58 H       1.308090     0.503423     3.262285 H          1 UNL1 0.000
    59 H       0.038098     0.750760     5.326126 H          1 UNL1 0.000
    60 H      -2.442651     0.796656     5.271991 H          1 UNL1 0.000
    61 H      -3.626384     0.591351     3.145140 H          1 UNL1 0.000
    62 C       1.763864     0.319865     0.655765 C          1 UNL1 0.000
    63 N       2.404631    -0.868956     0.519937 N          1 UNL1 0.000
    64 C       3.756143    -0.809457     0.500744 C          1 UNL1 0.000
    65 C       4.451722     0.383775     0.601133 C          1 UNL1 0.000
    66 N       3.828921     1.576746     0.722351 N          1 UNL1 0.000
    67 C       2.474392     1.516526     0.745495 C          1 UNL1 0.000
    68 H       4.270818    -1.758647     0.404920 H          1 UNL1 0.000
    69 H       5.535228     0.411268     0.587455 H          1 UNL1 0.000
    70 H       1.965568     2.469793     0.846240 H          1 UNL1 0.000
@<TRIPOS>BOND
     1      1      2   2
     2      2      3   1
     3      3      4   2
     4      4      5   1
     5      5      6   2
     6      6      1   1
     7      4      7   1
     8      7      8   1
     9      8      9   2
    10      9     10   1
    11     10     11   2
    12     11     12   1
    13     12     13   2
    14     13      8   1
    15     25     26   2
    16     24     25   1
    17     23     24   2
    18     22     23   1
    19     21     22   2
    20     21     26   1
    21     19     20   2
    22     18     19   1
    23     17     18   2
    24     16     17   1
    25     15     16   2
    26     15     20   1
    27     14     15   1
    28     14     21   1
    29     11     14   1
    30     27     28   2
    31     28     29   1
    32     29     30   2
    33     30     31   1
    34     31     32   2
    35     32     27   1
    36     31     33   1
    37     33     34   2
    38     34     35   1
    39     35     36   2
    40     36     32   1
    41      7     27   1
    42      1     37   1
    43      2     38   1
    44      3     39   1
    45      5     40   1
    46      6     41   1
    47      9     42   1
    48     10     43   1
    49     12     44   1
    50     13     45   1
    51     16     46   1
    52     17     47   1
    53     18     48   1
    54     19     49   1
    55     20     50   1
    56     22     51   1
    57     23     52   1
    58     24     53   1
    59     25     54   1
    60     26     55   1
    61     28     56   1
    62     29     57   1
    63     33     58   1
    64     34     59   1
    65     35     60   1
    66     36     61   1
    67     62     63   2
    68     63     64   1
    69     64     65   2
    70     65     66   1
    71     66     67   2
    72     67     62   1
    73     64     68   1
    74     65     69   1
    75     67     70   1
    76     30     62   1
