# Produced with molli package
@<TRIPOS>MOLECULE
J_6_N
69 75 0 0 0
SMALL
USER_CHARGES

@<TRIPOS>ATOM
     1 C      -5.895301     4.301589     0.697118 C          1 UNL1 0.000
     2 C      -6.545337     3.192159     1.226088 C          1 UNL1 0.000
     3 C      -5.922354     1.937411     1.215039 C          1 UNL1 0.000
     4 C      -4.660622     1.745385     0.625329 C          1 UNL1 0.000
     5 C      -4.011153     2.898712     0.135888 C          1 UNL1 0.000
     6 C      -4.618010     4.159068     0.170285 C          1 UNL1 0.000
     7 N      -4.021144     0.443239     0.550891 N          1 UNL1 0.000
     8 C      -4.728240    -0.823685     0.480977 C          1 UNL1 0.000
     9 C      -6.078608    -0.919166     0.104737 C          1 UNL1 0.000
    10 C      -6.771264    -2.136530     0.150058 C          1 UNL1 0.000
    11 C      -6.105594    -3.325313     0.467554 C          1 UNL1 0.000
    12 C      -4.736090    -3.270137     0.735728 C          1 UNL1 0.000
    13 C      -4.069544    -2.038998     0.769297 C          1 UNL1 0.000
    14 N      -6.814426    -4.577815     0.501308 N          1 UNL1 0.000
    15 C      -7.288765    -5.048991     1.793917 C          1 UNL1 0.000
    16 C      -6.616685    -4.718547     2.990273 C          1 UNL1 0.000
    17 C      -7.048515    -5.183574     4.238567 C          1 UNL1 0.000
    18 C      -8.175144    -5.989678     4.328669 C          1 UNL1 0.000
    19 C      -8.887003    -6.298748     3.175185 C          1 UNL1 0.000
    20 C      -8.461572    -5.814325     1.930053 C          1 UNL1 0.000
    21 C      -7.068144    -5.261032    -0.758023 C          1 UNL1 0.000
    22 C      -7.363804    -6.635034    -0.823117 C          1 UNL1 0.000
    23 C      -7.667432    -7.269277    -2.036139 C          1 UNL1 0.000
    24 C      -7.632895    -6.556038    -3.228655 C          1 UNL1 0.000
    25 C      -7.271449    -5.216313    -3.210290 C          1 UNL1 0.000
    26 C      -6.986717    -4.583953    -1.994315 C          1 UNL1 0.000
    27 C      -2.569849     0.413834     0.550970 C          1 UNL1 0.000
    28 C      -1.913117     0.322214    -0.687701 C          1 UNL1 0.000
    29 C      -0.525555     0.330933    -0.745845 C          1 UNL1 0.000
    30 C       0.227899     0.404195     0.433437 C          1 UNL1 0.000
    31 C      -0.405010     0.459103     1.706764 C          1 UNL1 0.000
    32 C      -1.825330     0.470624     1.765796 C          1 UNL1 0.000
    33 C       0.314393     0.488642     2.927410 C          1 UNL1 0.000
    34 C      -0.327188     0.520285     4.165336 C          1 UNL1 0.000
    35 C      -1.711413     0.530670     4.219658 C          1 UNL1 0.000
    36 C      -2.447178     0.510304     3.035820 C          1 UNL1 0.000
    37 H      -6.375548     5.276192     0.708932 H          1 UNL1 0.000
    38 H      -7.537390     3.299489     1.657213 H          1 UNL1 0.000
    39 H      -6.443757     1.114148     1.694998 H          1 UNL1 0.000
    40 H      -3.016372     2.838506    -0.296474 H          1 UNL1 0.000
    41 H      -4.088352     5.023951    -0.220683 H          1 UNL1 0.000
    42 H      -6.628365    -0.048758    -0.239975 H          1 UNL1 0.000
    43 H      -7.830317    -2.161302    -0.095728 H          1 UNL1 0.000
    44 H      -4.189507    -4.183383     0.958107 H          1 UNL1 0.000
    45 H      -3.017661    -2.056609     1.042637 H          1 UNL1 0.000
    46 H      -5.727006    -4.097564     2.983426 H          1 UNL1 0.000
    47 H      -6.496307    -4.913425     5.135222 H          1 UNL1 0.000
    48 H      -8.504424    -6.362159     5.294858 H          1 UNL1 0.000
    49 H      -9.782132    -6.911922     3.239800 H          1 UNL1 0.000
    50 H      -9.082397    -6.035684     1.066400 H          1 UNL1 0.000
    51 H      -7.350610    -7.250317     0.071987 H          1 UNL1 0.000
    52 H      -7.924321    -8.325348    -2.044205 H          1 UNL1 0.000
    53 H      -7.868481    -7.045259    -4.169630 H          1 UNL1 0.000
    54 H      -7.210475    -4.652583    -4.137696 H          1 UNL1 0.000
    55 H      -6.705906    -3.536870    -2.047087 H          1 UNL1 0.000
    56 H      -2.494451     0.269495    -1.604952 H          1 UNL1 0.000
    57 H      -0.032822     0.287484    -1.714672 H          1 UNL1 0.000
    58 H       1.403333     0.473953     2.926178 H          1 UNL1 0.000
    59 H       0.257172     0.532204     5.081252 H          1 UNL1 0.000
    60 H      -2.222979     0.549953     5.177897 H          1 UNL1 0.000
    61 H      -3.533489     0.510886     3.112463 H          1 UNL1 0.000
    62 C       1.680120     0.432035     0.298046 C          1 UNL1 0.000
    63 C       2.405709    -0.726553     0.106701 C          1 UNL1 0.000
    64 S       4.087110    -0.424067    -0.007719 S          1 UNL1 0.000
    65 C       3.855248     1.259320     0.191725 C          1 UNL1 0.000
    66 C       2.524899     1.584410     0.341536 C          1 UNL1 0.000
    67 H       2.035238    -1.740612     0.035452 H          1 UNL1 0.000
    68 H       4.704594     1.928597     0.190173 H          1 UNL1 0.000
    69 H       2.172635     2.599427     0.481930 H          1 UNL1 0.000
@<TRIPOS>BOND
     1      1      2   2
     2      2      3   1
     3      3      4   2
     4      4      5   1
     5      5      6   2
     6      6      1   1
     7      4      7   1
     8      7      8   1
     9      8      9   2
    10      9     10   1
    11     10     11   2
    12     11     12   1
    13     12     13   2
    14     13      8   1
    15     25     26   2
    16     24     25   1
    17     23     24   2
    18     22     23   1
    19     21     22   2
    20     21     26   1
    21     19     20   2
    22     18     19   1
    23     17     18   2
    24     16     17   1
    25     15     16   2
    26     15     20   1
    27     14     15   1
    28     14     21   1
    29     11     14   1
    30     27     28   2
    31     28     29   1
    32     29     30   2
    33     30     31   1
    34     31     32   2
    35     32     27   1
    36     31     33   1
    37     33     34   2
    38     34     35   1
    39     35     36   2
    40     36     32   1
    41      7     27   1
    42      1     37   1
    43      2     38   1
    44      3     39   1
    45      5     40   1
    46      6     41   1
    47      9     42   1
    48     10     43   1
    49     12     44   1
    50     13     45   1
    51     16     46   1
    52     17     47   1
    53     18     48   1
    54     19     49   1
    55     20     50   1
    56     22     51   1
    57     23     52   1
    58     24     53   1
    59     25     54   1
    60     26     55   1
    61     28     56   1
    62     29     57   1
    63     33     58   1
    64     34     59   1
    65     35     60   1
    66     36     61   1
    67     62     63   2
    68     63     64   1
    69     64     65   1
    70     65     66   2
    71     66     62   1
    72     63     67   1
    73     65     68   1
    74     66     69   1
    75     30     62   1
