# Produced with molli package
@<TRIPOS>MOLECULE
J_6_P
76 82 0 0 0
SMALL
USER_CHARGES

@<TRIPOS>ATOM
     1 C      -5.836914     4.187075     0.787775 C          1 UNL1 0.000
     2 C      -6.490868     3.047752     1.245847 C          1 UNL1 0.000
     3 C      -5.870614     1.795962     1.156580 C          1 UNL1 0.000
     4 C      -4.592646     1.649401     0.586894 C          1 UNL1 0.000
     5 C      -3.947449     2.823538     0.149190 C          1 UNL1 0.000
     6 C      -4.561378     4.076579     0.246036 C          1 UNL1 0.000
     7 N      -3.934407     0.361065     0.500617 N          1 UNL1 0.000
     8 C      -4.645148    -0.895872     0.429715 C          1 UNL1 0.000
     9 C      -5.885510    -1.009226    -0.221263 C          1 UNL1 0.000
    10 C      -6.596887    -2.216416    -0.228399 C          1 UNL1 0.000
    11 C      -6.080816    -3.354615     0.405921 C          1 UNL1 0.000
    12 C      -4.818985    -3.269149     1.005367 C          1 UNL1 0.000
    13 C      -4.110546    -2.063599     1.006303 C          1 UNL1 0.000
    14 N      -6.833897    -4.582053     0.457418 N          1 UNL1 0.000
    15 C      -7.095857    -5.180900     1.750173 C          1 UNL1 0.000
    16 C      -7.243800    -4.377529     2.899514 C          1 UNL1 0.000
    17 C      -7.491926    -4.938231     4.155875 C          1 UNL1 0.000
    18 C      -7.605700    -6.317642     4.290800 C          1 UNL1 0.000
    19 C      -7.456727    -7.135096     3.173539 C          1 UNL1 0.000
    20 C      -7.193285    -6.573081     1.918758 C          1 UNL1 0.000
    21 C      -7.309999    -5.161829    -0.778850 C          1 UNL1 0.000
    22 C      -8.519359    -5.875093    -0.847183 C          1 UNL1 0.000
    23 C      -8.963009    -6.436146    -2.049754 C          1 UNL1 0.000
    24 C      -8.216474    -6.277015    -3.214090 C          1 UNL1 0.000
    25 C      -7.025626    -5.559179    -3.177800 C          1 UNL1 0.000
    26 C      -6.576607    -5.011537    -1.972789 C          1 UNL1 0.000
    27 C      -2.487398     0.329311     0.559987 C          1 UNL1 0.000
    28 C      -1.784058     0.184288    -0.645556 C          1 UNL1 0.000
    29 C      -0.393944     0.209605    -0.653334 C          1 UNL1 0.000
    30 C       0.327355     0.354459     0.542571 C          1 UNL1 0.000
    31 C      -0.366853     0.451642     1.785357 C          1 UNL1 0.000
    32 C      -1.788505     0.450693     1.794631 C          1 UNL1 0.000
    33 C       0.304875     0.541559     3.029070 C          1 UNL1 0.000
    34 C      -0.379631     0.620077     4.241538 C          1 UNL1 0.000
    35 C      -1.764301     0.621161     4.246881 C          1 UNL1 0.000
    36 C      -2.455315     0.542633     3.039583 C          1 UNL1 0.000
    37 H      -6.315082     5.160028     0.862531 H          1 UNL1 0.000
    38 H      -7.481771     3.130364     1.684771 H          1 UNL1 0.000
    39 H      -6.395887     0.937957     1.567319 H          1 UNL1 0.000
    40 H      -2.951362     2.781747    -0.283194 H          1 UNL1 0.000
    41 H      -4.036764     4.963017    -0.100944 H          1 UNL1 0.000
    42 H      -6.319129    -0.154151    -0.734038 H          1 UNL1 0.000
    43 H      -7.571667    -2.257264    -0.708784 H          1 UNL1 0.000
    44 H      -4.380056    -4.144598     1.478268 H          1 UNL1 0.000
    45 H      -3.142607    -2.051064     1.500090 H          1 UNL1 0.000
    46 H      -7.179457    -3.294364     2.826089 H          1 UNL1 0.000
    47 H      -7.598727    -4.293252     5.024173 H          1 UNL1 0.000
    48 H      -7.805502    -6.754686     5.265614 H          1 UNL1 0.000
    49 H      -7.538713    -8.214013     3.276507 H          1 UNL1 0.000
    50 H      -7.049034    -7.241539     1.073793 H          1 UNL1 0.000
    51 H      -9.142008    -5.989458     0.036539 H          1 UNL1 0.000
    52 H      -9.896585    -6.992062    -2.074915 H          1 UNL1 0.000
    53 H      -8.563879    -6.708341    -4.149102 H          1 UNL1 0.000
    54 H      -6.439988    -5.425317    -4.083498 H          1 UNL1 0.000
    55 H      -5.631645    -4.472957    -1.973518 H          1 UNL1 0.000
    56 H      -2.329142     0.083644    -1.580763 H          1 UNL1 0.000
    57 H       0.131927     0.128000    -1.602539 H          1 UNL1 0.000
    58 H       1.393577     0.538792     3.068990 H          1 UNL1 0.000
    59 H       0.172630     0.676697     5.175265 H          1 UNL1 0.000
    60 H      -2.310135     0.677740     5.184200 H          1 UNL1 0.000
    61 H      -3.543552     0.536175     3.078517 H          1 UNL1 0.000
    62 C       1.797205     0.416555     0.468418 C          1 UNL1 0.000
    63 C       2.568676    -0.756132     0.461195 C          1 UNL1 0.000
    64 C       3.964538    -0.689104     0.463192 C          1 UNL1 0.000
    65 C       4.595420     0.553203     0.454166 C          1 UNL1 0.000
    66 C       3.848183     1.726852     0.463188 C          1 UNL1 0.000
    67 C       2.454051     1.658438     0.457529 C          1 UNL1 0.000
    68 O       5.956937     0.656459     0.535004 O          1 UNL1 0.000
    69 C       6.567990     0.285353    -0.699286 C          1 UNL1 0.000
    70 H       2.080925    -1.728468     0.487166 H          1 UNL1 0.000
    71 H       4.548968    -1.603283     0.501150 H          1 UNL1 0.000
    72 H       4.347306     2.691033     0.486132 H          1 UNL1 0.000
    73 H       1.875931     2.580287     0.474003 H          1 UNL1 0.000
    74 H       7.642544     0.470293    -0.607225 H          1 UNL1 0.000
    75 H       6.188766     0.896595    -1.525839 H          1 UNL1 0.000
    76 H       6.426319    -0.779172    -0.912168 H          1 UNL1 0.000
@<TRIPOS>BOND
     1      1      2   2
     2      2      3   1
     3      3      4   2
     4      4      5   1
     5      5      6   2
     6      6      1   1
     7      4      7   1
     8      7      8   1
     9      8      9   2
    10      9     10   1
    11     10     11   2
    12     11     12   1
    13     12     13   2
    14     13      8   1
    15     25     26   2
    16     24     25   1
    17     23     24   2
    18     22     23   1
    19     21     22   2
    20     21     26   1
    21     19     20   2
    22     18     19   1
    23     17     18   2
    24     16     17   1
    25     15     16   2
    26     15     20   1
    27     14     15   1
    28     14     21   1
    29     11     14   1
    30     27     28   2
    31     28     29   1
    32     29     30   2
    33     30     31   1
    34     31     32   2
    35     32     27   1
    36     31     33   1
    37     33     34   2
    38     34     35   1
    39     35     36   2
    40     36     32   1
    41      7     27   1
    42      1     37   1
    43      2     38   1
    44      3     39   1
    45      5     40   1
    46      6     41   1
    47      9     42   1
    48     10     43   1
    49     12     44   1
    50     13     45   1
    51     16     46   1
    52     17     47   1
    53     18     48   1
    54     19     49   1
    55     20     50   1
    56     22     51   1
    57     23     52   1
    58     24     53   1
    59     25     54   1
    60     26     55   1
    61     28     56   1
    62     29     57   1
    63     33     58   1
    64     34     59   1
    65     35     60   1
    66     36     61   1
    67     62     63   2
    68     63     64   1
    69     64     65   2
    70     65     66   1
    71     66     67   2
    72     67     62   1
    73     68     69   1
    74     65     68   1
    75     63     70   1
    76     64     71   1
    77     66     72   1
    78     67     73   1
    79     69     74   1
    80     69     75   1
    81     69     76   1
    82     30     62   1
