# Produced with molli package
@<TRIPOS>MOLECULE
J_6_R
73 79 0 0 0
SMALL
USER_CHARGES

@<TRIPOS>ATOM
     1 C      -5.925751     4.262349     0.087644 C          1 UNL1 0.000
     2 C      -6.563715     3.107391    -0.353856 C          1 UNL1 0.000
     3 C      -5.937662     1.861085    -0.224909 C          1 UNL1 0.000
     4 C      -4.671877     1.734706     0.373727 C          1 UNL1 0.000
     5 C      -4.042215     2.926455     0.791113 C          1 UNL1 0.000
     6 C      -4.659449     4.173548     0.652062 C          1 UNL1 0.000
     7 N      -4.014194     0.451531     0.524601 N          1 UNL1 0.000
     8 C      -4.717644    -0.812251     0.566854 C          1 UNL1 0.000
     9 C      -5.977742    -0.936074     1.178744 C          1 UNL1 0.000
    10 C      -6.664132    -2.158132     1.196387 C          1 UNL1 0.000
    11 C      -6.105937    -3.299813     0.606413 C          1 UNL1 0.000
    12 C      -4.833701    -3.199776     0.031663 C          1 UNL1 0.000
    13 C      -4.147394    -1.979872     0.025609 C          1 UNL1 0.000
    14 N      -6.822711    -4.549432     0.585839 N          1 UNL1 0.000
    15 C      -7.237432    -5.136013     1.841835 C          1 UNL1 0.000
    16 C      -6.482344    -4.934691     3.014606 C          1 UNL1 0.000
    17 C      -6.866204    -5.498116     4.235222 C          1 UNL1 0.000
    18 C      -8.012632    -6.282162     4.309772 C          1 UNL1 0.000
    19 C      -8.782587    -6.488996     3.168753 C          1 UNL1 0.000
    20 C      -8.405394    -5.911332     1.951179 C          1 UNL1 0.000
    21 C      -7.097997    -5.168565    -0.694368 C          1 UNL1 0.000
    22 C      -7.162147    -6.564684    -0.848699 C          1 UNL1 0.000
    23 C      -7.452225    -7.146024    -2.088706 C          1 UNL1 0.000
    24 C      -7.658860    -6.343702    -3.207400 C          1 UNL1 0.000
    25 C      -7.572923    -4.960670    -3.088857 C          1 UNL1 0.000
    26 C      -7.298106    -4.381073    -1.846378 C          1 UNL1 0.000
    27 C      -2.567579     0.432230     0.593347 C          1 UNL1 0.000
    28 C      -1.849081     0.499244    -0.610409 C          1 UNL1 0.000
    29 C      -0.460435     0.515128    -0.597693 C          1 UNL1 0.000
    30 C       0.248229     0.497600     0.615662 C          1 UNL1 0.000
    31 C      -0.461715     0.433785     1.852137 C          1 UNL1 0.000
    32 C      -1.882513     0.395460     1.841115 C          1 UNL1 0.000
    33 C       0.193255     0.418851     3.108878 C          1 UNL1 0.000
    34 C      -0.510595     0.392376     4.313277 C          1 UNL1 0.000
    35 C      -1.894555     0.365154     4.297957 C          1 UNL1 0.000
    36 C      -2.568780     0.360050     3.078259 C          1 UNL1 0.000
    37 H      -6.409961     5.229651    -0.015424 H          1 UNL1 0.000
    38 H      -7.549013     3.172757    -0.808134 H          1 UNL1 0.000
    39 H      -6.453655     0.991257    -0.622018 H          1 UNL1 0.000
    40 H      -3.056611     2.906151     1.248328 H          1 UNL1 0.000
    41 H      -4.146202     5.070359     0.989225 H          1 UNL1 0.000
    42 H      -6.440737    -0.080415     1.663963 H          1 UNL1 0.000
    43 H      -7.648030    -2.212150     1.656337 H          1 UNL1 0.000
    44 H      -4.364650    -4.078173    -0.405641 H          1 UNL1 0.000
    45 H      -3.162728    -1.960088    -0.432791 H          1 UNL1 0.000
    46 H      -5.568435    -4.345578     2.987006 H          1 UNL1 0.000
    47 H      -6.262922    -5.326177     5.122767 H          1 UNL1 0.000
    48 H      -8.307116    -6.727958     5.256104 H          1 UNL1 0.000
    49 H      -9.682029    -7.096742     3.223301 H          1 UNL1 0.000
    50 H      -9.047103    -6.066240     1.087531 H          1 UNL1 0.000
    51 H      -6.973031    -7.221862    -0.003680 H          1 UNL1 0.000
    52 H      -7.510927    -8.227669    -2.178592 H          1 UNL1 0.000
    53 H      -7.881301    -6.795224    -4.170642 H          1 UNL1 0.000
    54 H      -7.723765    -4.327411    -3.959211 H          1 UNL1 0.000
    55 H      -7.257637    -3.296114    -1.785400 H          1 UNL1 0.000
    56 H      -2.382872     0.530660    -1.557315 H          1 UNL1 0.000
    57 H       0.077931     0.550590    -1.543134 H          1 UNL1 0.000
    58 H       1.279916     0.424625     3.166749 H          1 UNL1 0.000
    59 H       0.026339     0.390469     5.258010 H          1 UNL1 0.000
    60 H      -2.454605     0.346038     5.228841 H          1 UNL1 0.000
    61 H      -3.656879     0.340237     3.099761 H          1 UNL1 0.000
    62 C       1.712952     0.585592     0.559022 C          1 UNL1 0.000
    63 N       2.371747    -0.582809     0.351158 N          1 UNL1 0.000
    64 C       3.727388    -0.543864     0.325018 C          1 UNL1 0.000
    65 C       4.451549     0.624775     0.496525 C          1 UNL1 0.000
    66 C       3.769915     1.825581     0.693471 C          1 UNL1 0.000
    67 C       2.376285     1.803908     0.720738 C          1 UNL1 0.000
    68 N       5.903673     0.582376     0.480473 N          1 UNL1 0.000
    69 O       6.508393     1.554458     0.957746 O          1 UNL1 0.000
    70 O       6.445774    -0.417535    -0.005359 O          1 UNL1 0.000
    71 H       4.202914    -1.508902     0.168293 H          1 UNL1 0.000
    72 H       4.298593     2.766251     0.827370 H          1 UNL1 0.000
    73 H       1.813899     2.720388     0.877068 H          1 UNL1 0.000
@<TRIPOS>BOND
     1      1      2   2
     2      2      3   1
     3      3      4   2
     4      4      5   1
     5      5      6   2
     6      6      1   1
     7      4      7   1
     8      7      8   1
     9      8      9   2
    10      9     10   1
    11     10     11   2
    12     11     12   1
    13     12     13   2
    14     13      8   1
    15     25     26   2
    16     24     25   1
    17     23     24   2
    18     22     23   1
    19     21     22   2
    20     21     26   1
    21     19     20   2
    22     18     19   1
    23     17     18   2
    24     16     17   1
    25     15     16   2
    26     15     20   1
    27     14     15   1
    28     14     21   1
    29     11     14   1
    30     27     28   2
    31     28     29   1
    32     29     30   2
    33     30     31   1
    34     31     32   2
    35     32     27   1
    36     31     33   1
    37     33     34   2
    38     34     35   1
    39     35     36   2
    40     36     32   1
    41      7     27   1
    42      1     37   1
    43      2     38   1
    44      3     39   1
    45      5     40   1
    46      6     41   1
    47      9     42   1
    48     10     43   1
    49     12     44   1
    50     13     45   1
    51     16     46   1
    52     17     47   1
    53     18     48   1
    54     19     49   1
    55     20     50   1
    56     22     51   1
    57     23     52   1
    58     24     53   1
    59     25     54   1
    60     26     55   1
    61     28     56   1
    62     29     57   1
    63     33     58   1
    64     34     59   1
    65     35     60   1
    66     36     61   1
    67     62     63   2
    68     63     64   1
    69     64     65   2
    70     65     66   1
    71     66     67   2
    72     67     62   1
    73     68     69   2
    74     68     70   1
    75     65     68   1
    76     64     71   1
    77     66     72   1
    78     67     73   1
    79     30     62   1
