# Produced with molli package
@<TRIPOS>MOLECULE
J_6_S
77 83 0 0 0
SMALL
USER_CHARGES

@<TRIPOS>ATOM
     1 C      -5.903969     4.258302     0.416075 C          1 UNL1 0.000
     2 C      -6.595242     3.120698     0.014035 C          1 UNL1 0.000
     3 C      -5.959336     1.870880     0.002879 C          1 UNL1 0.000
     4 C      -4.634725     1.713224     0.445065 C          1 UNL1 0.000
     5 C      -3.950516     2.896812     0.803791 C          1 UNL1 0.000
     6 C      -4.572587     4.149697     0.791546 C          1 UNL1 0.000
     7 N      -3.972055     0.419614     0.506497 N          1 UNL1 0.000
     8 C      -4.655088    -0.860915     0.553988 C          1 UNL1 0.000
     9 C      -5.936368    -1.011161     1.112056 C          1 UNL1 0.000
    10 C      -6.603518    -2.244512     1.102099 C          1 UNL1 0.000
    11 C      -5.992069    -3.385091     0.566868 C          1 UNL1 0.000
    12 C      -4.689578    -3.272150     0.072408 C          1 UNL1 0.000
    13 C      -4.033902    -2.033607     0.074006 C          1 UNL1 0.000
    14 N      -6.687943    -4.648066     0.529847 N          1 UNL1 0.000
    15 C      -7.118865    -5.222179     1.791077 C          1 UNL1 0.000
    16 C      -6.422422    -4.929163     2.984267 C          1 UNL1 0.000
    17 C      -6.826926    -5.443179     4.220197 C          1 UNL1 0.000
    18 C      -7.928859    -6.286049     4.293436 C          1 UNL1 0.000
    19 C      -8.636805    -6.593530     3.135588 C          1 UNL1 0.000
    20 C      -8.248528    -6.050476     1.903551 C          1 UNL1 0.000
    21 C      -6.981098    -5.229577    -0.768156 C          1 UNL1 0.000
    22 C      -7.168809    -6.610147    -0.955577 C          1 UNL1 0.000
    23 C      -7.507779    -7.139203    -2.208907 C          1 UNL1 0.000
    24 C      -7.619549    -6.304956    -3.317029 C          1 UNL1 0.000
    25 C      -7.386859    -4.942788    -3.174912 C          1 UNL1 0.000
    26 C      -7.078148    -4.413989    -1.916996 C          1 UNL1 0.000
    27 C      -2.521535     0.410506     0.553786 C          1 UNL1 0.000
    28 C      -1.819905     0.444332    -0.661847 C          1 UNL1 0.000
    29 C      -0.430485     0.466421    -0.669100 C          1 UNL1 0.000
    30 C       0.293827     0.486436     0.534279 C          1 UNL1 0.000
    31 C      -0.400247     0.482810     1.782005 C          1 UNL1 0.000
    32 C      -1.819731     0.428115     1.793162 C          1 UNL1 0.000
    33 C       0.271098     0.547587     3.028045 C          1 UNL1 0.000
    34 C      -0.415757     0.569323     4.242309 C          1 UNL1 0.000
    35 C      -1.798749     0.510055     4.248710 C          1 UNL1 0.000
    36 C      -2.488809     0.433444     3.040521 C          1 UNL1 0.000
    37 H      -6.395677     5.227094     0.423673 H          1 UNL1 0.000
    38 H      -7.632977     3.201692    -0.299272 H          1 UNL1 0.000
    39 H      -6.527793     1.026487    -0.374840 H          1 UNL1 0.000
    40 H      -2.910376     2.871838     1.117067 H          1 UNL1 0.000
    41 H      -4.010560     5.033059     1.083445 H          1 UNL1 0.000
    42 H      -6.441728    -0.172024     1.581563 H          1 UNL1 0.000
    43 H      -7.611540    -2.311182     1.504999 H          1 UNL1 0.000
    44 H      -4.176280    -4.150959    -0.310846 H          1 UNL1 0.000
    45 H      -3.024182    -2.008938    -0.325644 H          1 UNL1 0.000
    46 H      -5.542178    -4.290257     2.967569 H          1 UNL1 0.000
    47 H      -6.275462    -5.182701     5.119819 H          1 UNL1 0.000
    48 H      -8.239141    -6.695722     5.250892 H          1 UNL1 0.000
    49 H      -9.502394    -7.248919     3.188549 H          1 UNL1 0.000
    50 H      -8.863565    -6.274611     1.036786 H          1 UNL1 0.000
    51 H      -7.047514    -7.303859    -0.128143 H          1 UNL1 0.000
    52 H      -7.680194    -8.207105    -2.317143 H          1 UNL1 0.000
    53 H      -7.879413    -6.715279    -4.289289 H          1 UNL1 0.000
    54 H      -7.452332    -4.283595    -4.036687 H          1 UNL1 0.000
    55 H      -6.928597    -3.339197    -1.847909 H          1 UNL1 0.000
    56 H      -2.367467     0.444102    -1.601374 H          1 UNL1 0.000
    57 H       0.093491     0.473665    -1.623159 H          1 UNL1 0.000
    58 H       1.357733     0.595018     3.067717 H          1 UNL1 0.000
    59 H       0.134109     0.634228     5.177220 H          1 UNL1 0.000
    60 H      -2.345877     0.528689     5.187156 H          1 UNL1 0.000
    61 H      -3.576139     0.396159     3.077891 H          1 UNL1 0.000
    62 C       1.764132     0.507598     0.461295 C          1 UNL1 0.000
    63 C       2.489788    -0.689747     0.423227 C          1 UNL1 0.000
    64 C       3.887429    -0.675407     0.418694 C          1 UNL1 0.000
    65 C       4.590835     0.536984     0.447341 C          1 UNL1 0.000
    66 C       3.871983     1.737006     0.448840 C          1 UNL1 0.000
    67 C       2.470572     1.719480     0.459060 C          1 UNL1 0.000
    68 C       6.085278     0.474683     0.483436 C          1 UNL1 0.000
    69 C       6.897823     1.737327     0.620019 C          1 UNL1 0.000
    70 O       6.647226    -0.613710     0.384148 O          1 UNL1 0.000
    71 H       1.967933    -1.645161     0.416525 H          1 UNL1 0.000
    72 H       4.424467    -1.622643     0.404179 H          1 UNL1 0.000
    73 H       4.364960     2.703645     0.448011 H          1 UNL1 0.000
    74 H       1.926005     2.662394     0.482838 H          1 UNL1 0.000
    75 H       7.779315     1.517681     1.231355 H          1 UNL1 0.000
    76 H       6.359989     2.537226     1.129211 H          1 UNL1 0.000
    77 H       7.218211     2.069547    -0.370443 H          1 UNL1 0.000
@<TRIPOS>BOND
     1      1      2   2
     2      2      3   1
     3      3      4   2
     4      4      5   1
     5      5      6   2
     6      6      1   1
     7      4      7   1
     8      7      8   1
     9      8      9   2
    10      9     10   1
    11     10     11   2
    12     11     12   1
    13     12     13   2
    14     13      8   1
    15     25     26   2
    16     24     25   1
    17     23     24   2
    18     22     23   1
    19     21     22   2
    20     21     26   1
    21     19     20   2
    22     18     19   1
    23     17     18   2
    24     16     17   1
    25     15     16   2
    26     15     20   1
    27     14     15   1
    28     14     21   1
    29     11     14   1
    30     27     28   2
    31     28     29   1
    32     29     30   2
    33     30     31   1
    34     31     32   2
    35     32     27   1
    36     31     33   1
    37     33     34   2
    38     34     35   1
    39     35     36   2
    40     36     32   1
    41      7     27   1
    42      1     37   1
    43      2     38   1
    44      3     39   1
    45      5     40   1
    46      6     41   1
    47      9     42   1
    48     10     43   1
    49     12     44   1
    50     13     45   1
    51     16     46   1
    52     17     47   1
    53     18     48   1
    54     19     49   1
    55     20     50   1
    56     22     51   1
    57     23     52   1
    58     24     53   1
    59     25     54   1
    60     26     55   1
    61     28     56   1
    62     29     57   1
    63     33     58   1
    64     34     59   1
    65     35     60   1
    66     36     61   1
    67     62     63   2
    68     63     64   1
    69     64     65   2
    70     65     66   1
    71     66     67   2
    72     67     62   1
    73     65     68   1
    74     68     69   1
    75     68     70   2
    76     63     71   1
    77     64     72   1
    78     66     73   1
    79     67     74   1
    80     69     75   1
    81     69     76   1
    82     69     77   1
    83     30     62   1
