# Produced with molli package
@<TRIPOS>MOLECULE
J_6_L
76 83 0 0 0
SMALL
USER_CHARGES

@<TRIPOS>ATOM
     1 C      -5.876463     4.151438     0.871459 C          1 UNL1 0.000
     2 C      -6.505928     3.012283     1.361107 C          1 UNL1 0.000
     3 C      -5.861753     1.770489     1.300408 C          1 UNL1 0.000
     4 C      -4.597119     1.625008     0.702789 C          1 UNL1 0.000
     5 C      -3.970175     2.804150     0.249140 C          1 UNL1 0.000
     6 C      -4.599689     4.050846     0.332096 C          1 UNL1 0.000
     7 N      -3.931663     0.339481     0.588604 N          1 UNL1 0.000
     8 C      -4.620401    -0.931860     0.462308 C          1 UNL1 0.000
     9 C      -5.959515    -1.026448     0.046679 C          1 UNL1 0.000
    10 C      -6.646826    -2.247184     0.052217 C          1 UNL1 0.000
    11 C      -5.984516    -3.438120     0.368492 C          1 UNL1 0.000
    12 C      -4.620852    -3.381002     0.667835 C          1 UNL1 0.000
    13 C      -3.960699    -2.147504     0.741532 C          1 UNL1 0.000
    14 N      -6.693853    -4.690528     0.386837 N          1 UNL1 0.000
    15 C      -7.186500    -5.168301     1.669954 C          1 UNL1 0.000
    16 C      -6.510830    -4.879877     2.874132 C          1 UNL1 0.000
    17 C      -6.963845    -5.355145     4.110902 C          1 UNL1 0.000
    18 C      -8.115779    -6.127426     4.180336 C          1 UNL1 0.000
    19 C      -8.830215    -6.394467     3.017911 C          1 UNL1 0.000
    20 C      -8.382031    -5.902269     1.784408 C          1 UNL1 0.000
    21 C      -6.952473    -5.365120    -0.875089 C          1 UNL1 0.000
    22 C      -7.236005    -6.742391    -0.941132 C          1 UNL1 0.000
    23 C      -7.545378    -7.376019    -2.152297 C          1 UNL1 0.000
    24 C      -7.532749    -6.657135    -3.341752 C          1 UNL1 0.000
    25 C      -7.186942    -5.312704    -3.322026 C          1 UNL1 0.000
    26 C      -6.892852    -4.681241    -2.107554 C          1 UNL1 0.000
    27 C      -2.481083     0.335107     0.638440 C          1 UNL1 0.000
    28 C      -1.779749     0.233989    -0.572834 C          1 UNL1 0.000
    29 C      -0.390384     0.275530    -0.582602 C          1 UNL1 0.000
    30 C       0.334900     0.399412     0.614185 C          1 UNL1 0.000
    31 C      -0.356101     0.466052     1.859894 C          1 UNL1 0.000
    32 C      -1.778539     0.436688     1.873641 C          1 UNL1 0.000
    33 C       0.319414     0.552161     3.101590 C          1 UNL1 0.000
    34 C      -0.362400     0.597482     4.317487 C          1 UNL1 0.000
    35 C      -1.746949     0.562010     4.328034 C          1 UNL1 0.000
    36 C      -2.441892     0.485061     3.122360 C          1 UNL1 0.000
    37 H      -6.372892     5.116598     0.922805 H          1 UNL1 0.000
    38 H      -7.497413     3.086110     1.800333 H          1 UNL1 0.000
    39 H      -6.366106     0.918666     1.748049 H          1 UNL1 0.000
    40 H      -2.976808     2.772514    -0.190256 H          1 UNL1 0.000
    41 H      -4.087939     4.938822    -0.029743 H          1 UNL1 0.000
    42 H      -6.504547    -0.149367    -0.289439 H          1 UNL1 0.000
    43 H      -7.700592    -2.270393    -0.215195 H          1 UNL1 0.000
    44 H      -4.075597    -4.295186     0.889522 H          1 UNL1 0.000
    45 H      -2.916704    -2.161391     1.044507 H          1 UNL1 0.000
    46 H      -5.602046    -4.287556     2.882128 H          1 UNL1 0.000
    47 H      -6.408203    -5.119782     5.015203 H          1 UNL1 0.000
    48 H      -8.461782    -6.507025     5.137862 H          1 UNL1 0.000
    49 H      -9.743903    -6.981087     3.066458 H          1 UNL1 0.000
    50 H      -9.000147    -6.092330     0.911112 H          1 UNL1 0.000
    51 H      -7.210227    -7.357737    -0.045941 H          1 UNL1 0.000
    52 H      -7.790596    -8.434812    -2.161090 H          1 UNL1 0.000
    53 H      -7.774373    -7.145274    -4.281786 H          1 UNL1 0.000
    54 H      -7.146069    -4.744813    -4.248024 H          1 UNL1 0.000
    55 H      -6.625844    -3.630552    -2.157711 H          1 UNL1 0.000
    56 H      -2.325603     0.147903    -1.508913 H          1 UNL1 0.000
    57 H       0.134662     0.218893    -1.534361 H          1 UNL1 0.000
    58 H       1.408027     0.577430     3.135714 H          1 UNL1 0.000
    59 H       0.191726     0.657006     5.249996 H          1 UNL1 0.000
    60 H      -2.289966     0.591642     5.268324 H          1 UNL1 0.000
    61 H      -3.529317     0.450685     3.165217 H          1 UNL1 0.000
    62 C       1.805589     0.452276     0.528592 C          1 UNL1 0.000
    63 C       2.558242    -0.729902     0.490140 C          1 UNL1 0.000
    64 C       3.956808    -0.711564     0.430807 C          1 UNL1 0.000
    65 C       4.585791     0.537184     0.409937 C          1 UNL1 0.000
    66 C       3.877343     1.737572     0.439281 C          1 UNL1 0.000
    67 C       2.470182     1.693196     0.495513 C          1 UNL1 0.000
    68 N       5.923989     0.858161     0.362331 N          1 UNL1 0.000
    69 C       6.084867     2.218501     0.361166 C          1 UNL1 0.000
    70 C       4.833696     2.789893     0.406621 C          1 UNL1 0.000
    71 H       2.048375    -1.691870     0.516843 H          1 UNL1 0.000
    72 H       4.523772    -1.636217     0.407959 H          1 UNL1 0.000
    73 H       1.902103     2.619462     0.525049 H          1 UNL1 0.000
    74 H       6.674404     0.181980     0.335272 H          1 UNL1 0.000
    75 H       7.071528     2.660563     0.328818 H          1 UNL1 0.000
    76 H       4.624984     3.851591     0.418296 H          1 UNL1 0.000
@<TRIPOS>BOND
     1      1      2   2
     2      2      3   1
     3      3      4   2
     4      4      5   1
     5      5      6   2
     6      6      1   1
     7      4      7   1
     8      7      8   1
     9      8      9   2
    10      9     10   1
    11     10     11   2
    12     11     12   1
    13     12     13   2
    14     13      8   1
    15     25     26   2
    16     24     25   1
    17     23     24   2
    18     22     23   1
    19     21     22   2
    20     21     26   1
    21     19     20   2
    22     18     19   1
    23     17     18   2
    24     16     17   1
    25     15     16   2
    26     15     20   1
    27     14     15   1
    28     14     21   1
    29     11     14   1
    30     27     28   2
    31     28     29   1
    32     29     30   2
    33     30     31   1
    34     31     32   2
    35     32     27   1
    36     31     33   1
    37     33     34   2
    38     34     35   1
    39     35     36   2
    40     36     32   1
    41      7     27   1
    42      1     37   1
    43      2     38   1
    44      3     39   1
    45      5     40   1
    46      6     41   1
    47      9     42   1
    48     10     43   1
    49     12     44   1
    50     13     45   1
    51     16     46   1
    52     17     47   1
    53     18     48   1
    54     19     49   1
    55     20     50   1
    56     22     51   1
    57     23     52   1
    58     24     53   1
    59     25     54   1
    60     26     55   1
    61     28     56   1
    62     29     57   1
    63     33     58   1
    64     34     59   1
    65     35     60   1
    66     36     61   1
    67     62     63   2
    68     63     64   1
    69     64     65   2
    70     65     66   1
    71     66     67   2
    72     67     62   1
    73     65     68   1
    74     68     69   1
    75     69     70   2
    76     70     66   1
    77     63     71   1
    78     64     72   1
    79     67     73   1
    80     68     74   1
    81     69     75   1
    82     70     76   1
    83     30     62   1
