# Produced with molli package
@<TRIPOS>MOLECULE
J_7_N
67 72 0 0 0
SMALL
USER_CHARGES

@<TRIPOS>ATOM
     1 C      -8.031684     4.182982    -1.412678 C          1 UNL1 0.000
     2 C      -8.496618     3.057571    -2.088504 C          1 UNL1 0.000
     3 C      -7.893901     1.812274    -1.879691 C          1 UNL1 0.000
     4 C      -6.832544     1.663392    -0.971681 C          1 UNL1 0.000
     5 C      -6.366196     2.820646    -0.317079 C          1 UNL1 0.000
     6 C      -6.959983     4.067108    -0.533134 C          1 UNL1 0.000
     7 N      -6.201381     0.386831    -0.724967 N          1 UNL1 0.000
     8 C      -6.928553    -0.866423    -0.663266 C          1 UNL1 0.000
     9 C      -8.315248    -0.917641    -0.433301 C          1 UNL1 0.000
    10 C      -9.017839    -2.130582    -0.454040 C          1 UNL1 0.000
    11 C      -8.341268    -3.342260    -0.627716 C          1 UNL1 0.000
    12 C      -6.953118    -3.319717    -0.780478 C          1 UNL1 0.000
    13 C      -6.265722    -2.101631    -0.824490 C          1 UNL1 0.000
    14 N      -9.057297    -4.584881    -0.660518 N          1 UNL1 0.000
    15 C      -9.228880    -5.324114     0.570453 C          1 UNL1 0.000
    16 C      -9.336988    -4.669101     1.811467 C          1 UNL1 0.000
    17 C      -9.522255    -5.383957     2.999688 C          1 UNL1 0.000
    18 C      -9.587329    -6.773146     2.975830 C          1 UNL1 0.000
    19 C      -9.452797    -7.448164     1.766909 C          1 UNL1 0.000
    20 C      -9.267390    -6.731235     0.579987 C          1 UNL1 0.000
    21 C      -9.550323    -5.067300    -1.932282 C          1 UNL1 0.000
    22 C     -10.752633    -5.793509    -2.019472 C          1 UNL1 0.000
    23 C     -11.223140    -6.280121    -3.244009 C          1 UNL1 0.000
    24 C     -10.508603    -6.037436    -4.413037 C          1 UNL1 0.000
    25 C      -9.332676    -5.296839    -4.359938 C          1 UNL1 0.000
    26 C      -8.864651    -4.810325    -3.134659 C          1 UNL1 0.000
    27 C      -4.763266     0.369898    -0.651196 C          1 UNL1 0.000
    28 C      -3.998626     0.699083    -1.780680 C          1 UNL1 0.000
    29 C      -2.605453     0.612825    -1.741446 C          1 UNL1 0.000
    30 C      -1.954069     0.226518    -0.565236 C          1 UNL1 0.000
    31 C      -2.712035    -0.076536     0.572454 C          1 UNL1 0.000
    32 C      -4.107853    -0.009770     0.529201 C          1 UNL1 0.000
    33 C      -0.495929     0.080472    -0.575133 C          1 UNL1 0.000
    34 C       0.313582     0.692869     0.302757 C          1 UNL1 0.000
    35 H      -8.499219     5.150385    -1.576379 H          1 UNL1 0.000
    36 H      -9.326477     3.147128    -2.784735 H          1 UNL1 0.000
    37 H      -8.255057     0.959405    -2.448694 H          1 UNL1 0.000
    38 H      -5.539321     2.755974     0.386256 H          1 UNL1 0.000
    39 H      -6.584960     4.942924    -0.010134 H          1 UNL1 0.000
    40 H      -8.880941    -0.011547    -0.234621 H          1 UNL1 0.000
    41 H     -10.096076    -2.130256    -0.315018 H          1 UNL1 0.000
    42 H      -6.406606    -4.251114    -0.905440 H          1 UNL1 0.000
    43 H      -5.194707    -2.142774    -1.005549 H          1 UNL1 0.000
    44 H      -9.300543    -3.585522     1.873769 H          1 UNL1 0.000
    45 H      -9.618029    -4.849754     3.941415 H          1 UNL1 0.000
    46 H      -9.734413    -7.328143     3.898401 H          1 UNL1 0.000
    47 H      -9.486636    -8.534160     1.743053 H          1 UNL1 0.000
    48 H      -9.134850    -7.290924    -0.342782 H          1 UNL1 0.000
    49 H     -11.348042    -5.976223    -1.128142 H          1 UNL1 0.000
    50 H     -12.150659    -6.845229    -3.281052 H          1 UNL1 0.000
    51 H     -10.870541    -6.417925    -5.364405 H          1 UNL1 0.000
    52 H      -8.772170    -5.096972    -5.269584 H          1 UNL1 0.000
    53 H      -7.937294    -4.245552    -3.138097 H          1 UNL1 0.000
    54 H      -4.493493     0.987313    -2.704975 H          1 UNL1 0.000
    55 H      -2.035812     0.844376    -2.638668 H          1 UNL1 0.000
    56 H      -2.226263    -0.392380     1.492640 H          1 UNL1 0.000
    57 H      -4.688469    -0.262484     1.412901 H          1 UNL1 0.000
    58 H      -0.094460    -0.536674    -1.375487 H          1 UNL1 0.000
    59 H      -0.125063     1.355366     1.048046 H          1 UNL1 0.000
    60 C       1.741924     0.586934     0.311092 C          1 UNL1 0.000
    61 C       2.441676    -0.550429    -0.037070 C          1 UNL1 0.000
    62 S       4.136441    -0.332497     0.079843 S          1 UNL1 0.000
    63 C       3.945242     1.283727     0.605119 C          1 UNL1 0.000
    64 C       2.618342     1.644276     0.700045 C          1 UNL1 0.000
    65 H       2.051374    -1.509614    -0.348932 H          1 UNL1 0.000
    66 H       4.813779     1.890759     0.819904 H          1 UNL1 0.000
    67 H       2.298159     2.630454     1.014042 H          1 UNL1 0.000
@<TRIPOS>BOND
     1      1      2   2
     2      2      3   1
     3      3      4   2
     4      4      5   1
     5      5      6   2
     6      6      1   1
     7      4      7   1
     8      7      8   1
     9      8      9   2
    10      9     10   1
    11     10     11   2
    12     11     12   1
    13     12     13   2
    14     13      8   1
    15     25     26   2
    16     24     25   1
    17     23     24   2
    18     22     23   1
    19     21     22   2
    20     21     26   1
    21     19     20   2
    22     18     19   1
    23     17     18   2
    24     16     17   1
    25     15     16   2
    26     15     20   1
    27     14     15   1
    28     14     21   1
    29     11     14   1
    30     27     28   2
    31     28     29   1
    32     29     30   2
    33     30     31   1
    34     31     32   2
    35     32     27   1
    36     30     33   1
    37     33     34   2
    38      7     27   1
    39      1     35   1
    40      2     36   1
    41      3     37   1
    42      5     38   1
    43      6     39   1
    44      9     40   1
    45     10     41   1
    46     12     42   1
    47     13     43   1
    48     16     44   1
    49     17     45   1
    50     18     46   1
    51     19     47   1
    52     20     48   1
    53     22     49   1
    54     23     50   1
    55     24     51   1
    56     25     52   1
    57     26     53   1
    58     28     54   1
    59     29     55   1
    60     31     56   1
    61     32     57   1
    62     33     58   1
    63     34     59   1
    64     60     61   2
    65     61     62   1
    66     62     63   1
    67     63     64   2
    68     64     60   1
    69     61     65   1
    70     63     66   1
    71     64     67   1
    72     34     60   1
