# Produced with molli package
@<TRIPOS>MOLECULE
J_7_O
69 74 0 0 0
SMALL
USER_CHARGES

@<TRIPOS>ATOM
     1 C      -8.200622     4.131796    -0.441421 C          1 UNL1 0.000
     2 C      -8.768832     2.988792     0.114675 C          1 UNL1 0.000
     3 C      -8.117648     1.755762     0.004993 C          1 UNL1 0.000
     4 C      -6.890306     1.639435    -0.670362 C          1 UNL1 0.000
     5 C      -6.330575     2.811878    -1.213477 C          1 UNL1 0.000
     6 C      -6.979686     4.044813    -1.103189 C          1 UNL1 0.000
     7 N      -6.202844     0.375088    -0.786434 N          1 UNL1 0.000
     8 C      -6.901834    -0.885856    -0.854899 C          1 UNL1 0.000
     9 C      -8.119860    -1.015422    -1.542663 C          1 UNL1 0.000
    10 C      -8.808066    -2.235769    -1.575430 C          1 UNL1 0.000
    11 C      -8.297211    -3.366402    -0.921312 C          1 UNL1 0.000
    12 C      -7.068174    -3.250736    -0.257958 C          1 UNL1 0.000
    13 C      -6.379031    -2.034335    -0.233890 C          1 UNL1 0.000
    14 N      -9.017714    -4.614776    -0.914927 N          1 UNL1 0.000
    15 C      -9.217258    -5.296867     0.344024 C          1 UNL1 0.000
    16 C      -9.494599    -4.571150     1.518218 C          1 UNL1 0.000
    17 C      -9.684330    -5.219409     2.741451 C          1 UNL1 0.000
    18 C      -9.598853    -6.606810     2.814211 C          1 UNL1 0.000
    19 C      -9.319055    -7.345242     1.666701 C          1 UNL1 0.000
    20 C      -9.126354    -6.695975     0.443172 C          1 UNL1 0.000
    21 C      -9.517850    -5.162322    -2.155026 C          1 UNL1 0.000
    22 C     -10.713882    -5.900966    -2.200894 C          1 UNL1 0.000
    23 C     -11.189369    -6.435000    -3.402683 C          1 UNL1 0.000
    24 C     -10.483491    -6.231393    -4.585223 C          1 UNL1 0.000
    25 C      -9.302311    -5.495643    -4.567562 C          1 UNL1 0.000
    26 C      -8.823933    -4.968660    -3.364435 C          1 UNL1 0.000
    27 C      -4.767822     0.364677    -0.715087 C          1 UNL1 0.000
    28 C      -4.003825    -0.072377    -1.804026 C          1 UNL1 0.000
    29 C      -2.607729    -0.096942    -1.723197 C          1 UNL1 0.000
    30 C      -1.947582     0.296587    -0.550223 C          1 UNL1 0.000
    31 C      -2.717982     0.713244     0.543496 C          1 UNL1 0.000
    32 C      -4.112479     0.765772     0.456583 C          1 UNL1 0.000
    33 C      -0.479257     0.193458    -0.500215 C          1 UNL1 0.000
    34 C       0.320004     0.877557     0.334283 C          1 UNL1 0.000
    35 H      -8.706244     5.089908    -0.355357 H          1 UNL1 0.000
    36 H      -9.717354     3.054331     0.641201 H          1 UNL1 0.000
    37 H      -8.571429     0.887357     0.475754 H          1 UNL1 0.000
    38 H      -5.383493     2.772010    -1.746590 H          1 UNL1 0.000
    39 H      -6.528945     4.933521    -1.537032 H          1 UNL1 0.000
    40 H      -8.546328    -0.164343    -2.068257 H          1 UNL1 0.000
    41 H      -9.760856    -2.292480    -2.096569 H          1 UNL1 0.000
    42 H      -6.633510    -4.113997     0.240717 H          1 UNL1 0.000
    43 H      -5.435477    -1.992743     0.304699 H          1 UNL1 0.000
    44 H      -9.581298    -3.487604     1.484041 H          1 UNL1 0.000
    45 H      -9.900707    -4.637995     3.633814 H          1 UNL1 0.000
    46 H      -9.747169    -7.111799     3.765142 H          1 UNL1 0.000
    47 H      -9.244517    -8.428104     1.722104 H          1 UNL1 0.000
    48 H      -8.884719    -7.292342    -0.433309 H          1 UNL1 0.000
    49 H     -11.298923    -6.055339    -1.297440 H          1 UNL1 0.000
    50 H     -12.114115    -7.005878    -3.412153 H          1 UNL1 0.000
    51 H     -10.853974    -6.644345    -5.519699 H          1 UNL1 0.000
    52 H      -8.746844    -5.332931    -5.487446 H          1 UNL1 0.000
    53 H      -7.887101    -4.416439    -3.377915 H          1 UNL1 0.000
    54 H      -4.496226    -0.381749    -2.722396 H          1 UNL1 0.000
    55 H      -2.039948    -0.429123    -2.589984 H          1 UNL1 0.000
    56 H      -2.252410     0.985035     1.486344 H          1 UNL1 0.000
    57 H      -4.693074     1.084008     1.318939 H          1 UNL1 0.000
    58 H      -0.034922    -0.494897    -1.218742 H          1 UNL1 0.000
    59 H      -0.093955     1.586651     1.043173 H          1 UNL1 0.000
    60 C       1.785844     0.745526     0.359180 C          1 UNL1 0.000
    61 N       2.349846    -0.157884    -0.477124 N          1 UNL1 0.000
    62 C       3.695247    -0.277667    -0.447544 C          1 UNL1 0.000
    63 C       4.517917     0.466242     0.380189 C          1 UNL1 0.000
    64 C       3.925682     1.388831     1.232676 C          1 UNL1 0.000
    65 C       2.539903     1.531862     1.225801 C          1 UNL1 0.000
    66 H       4.107556    -1.013844    -1.131540 H          1 UNL1 0.000
    67 H       5.593116     0.329516     0.360548 H          1 UNL1 0.000
    68 H       4.535448     1.993063     1.898052 H          1 UNL1 0.000
    69 H       2.067112     2.249233     1.888208 H          1 UNL1 0.000
@<TRIPOS>BOND
     1      1      2   2
     2      2      3   1
     3      3      4   2
     4      4      5   1
     5      5      6   2
     6      6      1   1
     7      4      7   1
     8      7      8   1
     9      8      9   2
    10      9     10   1
    11     10     11   2
    12     11     12   1
    13     12     13   2
    14     13      8   1
    15     25     26   2
    16     24     25   1
    17     23     24   2
    18     22     23   1
    19     21     22   2
    20     21     26   1
    21     19     20   2
    22     18     19   1
    23     17     18   2
    24     16     17   1
    25     15     16   2
    26     15     20   1
    27     14     15   1
    28     14     21   1
    29     11     14   1
    30     27     28   2
    31     28     29   1
    32     29     30   2
    33     30     31   1
    34     31     32   2
    35     32     27   1
    36     30     33   1
    37     33     34   2
    38      7     27   1
    39      1     35   1
    40      2     36   1
    41      3     37   1
    42      5     38   1
    43      6     39   1
    44      9     40   1
    45     10     41   1
    46     12     42   1
    47     13     43   1
    48     16     44   1
    49     17     45   1
    50     18     46   1
    51     19     47   1
    52     20     48   1
    53     22     49   1
    54     23     50   1
    55     24     51   1
    56     25     52   1
    57     26     53   1
    58     28     54   1
    59     29     55   1
    60     31     56   1
    61     32     57   1
    62     33     58   1
    63     34     59   1
    64     60     61   2
    65     61     62   1
    66     62     63   2
    67     63     64   1
    68     64     65   2
    69     65     60   1
    70     62     66   1
    71     63     67   1
    72     64     68   1
    73     65     69   1
    74     34     60   1
