# Produced with molli package
@<TRIPOS>MOLECULE
J_7_S
75 80 0 0 0
SMALL
USER_CHARGES

@<TRIPOS>ATOM
     1 C      -8.166589     4.164532    -0.898414 C          1 UNL1 0.000
     2 C      -8.764604     3.059258    -1.494466 C          1 UNL1 0.000
     3 C      -8.111346     1.819984    -1.499109 C          1 UNL1 0.000
     4 C      -6.874378     1.638407    -0.857128 C          1 UNL1 0.000
     5 C      -6.275364     2.788223    -0.299021 C          1 UNL1 0.000
     6 C      -6.910373     4.034508    -0.319579 C          1 UNL1 0.000
     7 N      -6.215561     0.347732    -0.774642 N          1 UNL1 0.000
     8 C      -6.910362    -0.926763    -0.713142 C          1 UNL1 0.000
     9 C      -8.273149    -1.032484    -0.385298 C          1 UNL1 0.000
    10 C      -8.949028    -2.258910    -0.425921 C          1 UNL1 0.000
    11 C      -8.257801    -3.446317    -0.686397 C          1 UNL1 0.000
    12 C      -6.882119    -3.379027    -0.922572 C          1 UNL1 0.000
    13 C      -6.229314    -2.138743    -0.962791 C          1 UNL1 0.000
    14 N      -8.950549    -4.708631    -0.708291 N          1 UNL1 0.000
    15 C      -9.209538    -5.369174     0.561203 C          1 UNL1 0.000
    16 C      -9.244194    -4.647662     1.773866 C          1 UNL1 0.000
    17 C      -9.550052    -5.259131     2.995059 C          1 UNL1 0.000
    18 C      -9.814268    -6.620725     3.042884 C          1 UNL1 0.000
    19 C      -9.727793    -7.373912     1.877429 C          1 UNL1 0.000
    20 C      -9.403671    -6.758886     0.659746 C          1 UNL1 0.000
    21 C      -9.426009    -5.196692    -1.995495 C          1 UNL1 0.000
    22 C     -10.528070    -6.063349    -2.116661 C          1 UNL1 0.000
    23 C     -10.954599    -6.549626    -3.361024 C          1 UNL1 0.000
    24 C     -10.320053    -6.142169    -4.528467 C          1 UNL1 0.000
    25 C      -9.267315    -5.240613    -4.451842 C          1 UNL1 0.000
    26 C      -8.830055    -4.776270    -3.204822 C          1 UNL1 0.000
    27 C      -4.777012     0.346026    -0.713984 C          1 UNL1 0.000
    28 C      -4.016841     0.560527    -1.870543 C          1 UNL1 0.000
    29 C      -2.618183     0.574212    -1.805863 C          1 UNL1 0.000
    30 C      -1.949647     0.399634    -0.584236 C          1 UNL1 0.000
    31 C      -2.719708     0.177531     0.567293 C          1 UNL1 0.000
    32 C      -4.117195     0.144723     0.504435 C          1 UNL1 0.000
    33 C      -0.473318     0.416298    -0.575674 C          1 UNL1 0.000
    34 C       0.292634     0.534891     0.520541 C          1 UNL1 0.000
    35 H      -8.672067     5.126407    -0.895263 H          1 UNL1 0.000
    36 H      -9.741079     3.157496    -1.961850 H          1 UNL1 0.000
    37 H      -8.591029     0.997854    -2.023065 H          1 UNL1 0.000
    38 H      -5.303069     2.730080     0.183262 H          1 UNL1 0.000
    39 H      -6.421950     4.896599     0.127083 H          1 UNL1 0.000
    40 H      -8.847664    -0.163312    -0.080923 H          1 UNL1 0.000
    41 H     -10.016174    -2.291452    -0.219179 H          1 UNL1 0.000
    42 H      -6.319852    -4.290105    -1.112373 H          1 UNL1 0.000
    43 H      -5.169216    -2.143940    -1.204262 H          1 UNL1 0.000
    44 H      -9.048376    -3.580748     1.801363 H          1 UNL1 0.000
    45 H      -9.584792    -4.661715     3.902521 H          1 UNL1 0.000
    46 H     -10.069342    -7.094122     3.986929 H          1 UNL1 0.000
    47 H      -9.908103    -8.445217     1.911296 H          1 UNL1 0.000
    48 H      -9.295940    -7.396912    -0.213175 H          1 UNL1 0.000
    49 H     -11.099265    -6.365451    -1.243915 H          1 UNL1 0.000
    50 H     -11.792772    -7.239828    -3.413020 H          1 UNL1 0.000
    51 H     -10.654024    -6.512344    -5.493906 H          1 UNL1 0.000
    52 H      -8.778795    -4.892804    -5.358573 H          1 UNL1 0.000
    53 H      -8.001239    -4.075198    -3.209183 H          1 UNL1 0.000
    54 H      -4.515991     0.703623    -2.825758 H          1 UNL1 0.000
    55 H      -2.058194     0.729271    -2.725706 H          1 UNL1 0.000
    56 H      -2.252749     0.020996     1.535238 H          1 UNL1 0.000
    57 H      -4.695324    -0.017850     1.410703 H          1 UNL1 0.000
    58 H       0.004668     0.329352    -1.550221 H          1 UNL1 0.000
    59 H      -0.120354     0.642700     1.518054 H          1 UNL1 0.000
    60 C       1.755017     0.522363     0.464636 C          1 UNL1 0.000
    61 C       2.448792    -0.689576     0.492790 C          1 UNL1 0.000
    62 C       3.846663    -0.698072     0.519556 C          1 UNL1 0.000
    63 C       4.569301     0.503909     0.513341 C          1 UNL1 0.000
    64 C       3.871813     1.715902     0.445901 C          1 UNL1 0.000
    65 C       2.470673     1.722765     0.426984 C          1 UNL1 0.000
    66 C       6.060356     0.428334     0.590905 C          1 UNL1 0.000
    67 C       6.874323     1.690805     0.708649 C          1 UNL1 0.000
    68 O       6.616364    -0.669542     0.541127 O          1 UNL1 0.000
    69 H       1.909763    -1.634348     0.514125 H          1 UNL1 0.000
    70 H       4.369758    -1.652463     0.559045 H          1 UNL1 0.000
    71 H       4.385536     2.671484     0.414158 H          1 UNL1 0.000
    72 H       1.941214     2.673083     0.395836 H          1 UNL1 0.000
    73 H       7.801899     1.461623     1.243694 H          1 UNL1 0.000
    74 H       6.362455     2.460122     1.289447 H          1 UNL1 0.000
    75 H       7.117929     2.062663    -0.289480 H          1 UNL1 0.000
@<TRIPOS>BOND
     1      1      2   2
     2      2      3   1
     3      3      4   2
     4      4      5   1
     5      5      6   2
     6      6      1   1
     7      4      7   1
     8      7      8   1
     9      8      9   2
    10      9     10   1
    11     10     11   2
    12     11     12   1
    13     12     13   2
    14     13      8   1
    15     25     26   2
    16     24     25   1
    17     23     24   2
    18     22     23   1
    19     21     22   2
    20     21     26   1
    21     19     20   2
    22     18     19   1
    23     17     18   2
    24     16     17   1
    25     15     16   2
    26     15     20   1
    27     14     15   1
    28     14     21   1
    29     11     14   1
    30     27     28   2
    31     28     29   1
    32     29     30   2
    33     30     31   1
    34     31     32   2
    35     32     27   1
    36     30     33   1
    37     33     34   2
    38      7     27   1
    39      1     35   1
    40      2     36   1
    41      3     37   1
    42      5     38   1
    43      6     39   1
    44      9     40   1
    45     10     41   1
    46     12     42   1
    47     13     43   1
    48     16     44   1
    49     17     45   1
    50     18     46   1
    51     19     47   1
    52     20     48   1
    53     22     49   1
    54     23     50   1
    55     24     51   1
    56     25     52   1
    57     26     53   1
    58     28     54   1
    59     29     55   1
    60     31     56   1
    61     32     57   1
    62     33     58   1
    63     34     59   1
    64     60     61   2
    65     61     62   1
    66     62     63   2
    67     63     64   1
    68     64     65   2
    69     65     60   1
    70     63     66   1
    71     66     67   1
    72     66     68   2
    73     61     69   1
    74     62     70   1
    75     64     71   1
    76     65     72   1
    77     67     73   1
    78     67     74   1
    79     67     75   1
    80     34     60   1
