# Produced with molli package
@<TRIPOS>MOLECULE
J_7_P
74 79 0 0 0
SMALL
USER_CHARGES

@<TRIPOS>ATOM
     1 C      -8.169192     4.187633    -0.489353 C          1 UNL1 0.000
     2 C      -8.745541     3.044672     0.058538 C          1 UNL1 0.000
     3 C      -8.087774     1.813563    -0.031432 C          1 UNL1 0.000
     4 C      -6.845095     1.699266    -0.678621 C          1 UNL1 0.000
     5 C      -6.279626     2.871260    -1.217423 C          1 UNL1 0.000
     6 C      -6.934644     4.102366    -1.125350 C          1 UNL1 0.000
     7 N      -6.150053     0.435748    -0.771305 N          1 UNL1 0.000
     8 C      -6.850626    -0.822438    -0.850220 C          1 UNL1 0.000
     9 C      -8.037873    -0.954718    -1.589514 C          1 UNL1 0.000
    10 C      -8.743494    -2.164508    -1.617372 C          1 UNL1 0.000
    11 C      -8.283907    -3.280504    -0.902790 C          1 UNL1 0.000
    12 C      -7.079310    -3.164722    -0.194333 C          1 UNL1 0.000
    13 C      -6.369635    -1.958805    -0.177403 C          1 UNL1 0.000
    14 N      -9.038469    -4.508737    -0.876217 N          1 UNL1 0.000
    15 C      -9.312763    -5.140497     0.395281 C          1 UNL1 0.000
    16 C      -9.569366    -4.368927     1.544639 C          1 UNL1 0.000
    17 C      -9.835963    -4.971991     2.776935 C          1 UNL1 0.000
    18 C      -9.851762    -6.359632     2.884063 C          1 UNL1 0.000
    19 C      -9.596148    -7.143928     1.761961 C          1 UNL1 0.000
    20 C      -9.325194    -6.539990     0.530035 C          1 UNL1 0.000
    21 C      -9.529377    -5.072053    -2.112391 C          1 UNL1 0.000
    22 C     -10.780835    -5.710103    -2.180838 C          1 UNL1 0.000
    23 C     -11.246718    -6.260101    -3.378846 C          1 UNL1 0.000
    24 C     -10.473001    -6.175376    -4.533349 C          1 UNL1 0.000
    25 C      -9.234908    -5.540227    -4.492095 C          1 UNL1 0.000
    26 C      -8.768087    -4.993850    -3.293247 C          1 UNL1 0.000
    27 C      -4.714241     0.432369    -0.701382 C          1 UNL1 0.000
    28 C      -3.950519    -0.048056    -1.773720 C          1 UNL1 0.000
    29 C      -2.553643    -0.001504    -1.724418 C          1 UNL1 0.000
    30 C      -1.896615     0.489560    -0.589362 C          1 UNL1 0.000
    31 C      -2.659062     0.957923     0.487559 C          1 UNL1 0.000
    32 C      -4.055089     0.935934     0.429742 C          1 UNL1 0.000
    33 C      -0.430816     0.560414    -0.586711 C          1 UNL1 0.000
    34 C       0.322437     0.215577     0.468737 C          1 UNL1 0.000
    35 H      -8.679461     5.144433    -0.417340 H          1 UNL1 0.000
    36 H      -9.705703     3.108946     0.563680 H          1 UNL1 0.000
    37 H      -8.549210     0.945310     0.432165 H          1 UNL1 0.000
    38 H      -5.322060     2.833148    -1.731587 H          1 UNL1 0.000
    39 H      -6.477652     4.990932    -1.552886 H          1 UNL1 0.000
    40 H      -8.428537    -0.111267    -2.154034 H          1 UNL1 0.000
    41 H      -9.674541    -2.220658    -2.176545 H          1 UNL1 0.000
    42 H      -6.684068    -4.018504     0.351299 H          1 UNL1 0.000
    43 H      -5.450697    -1.909886     0.401620 H          1 UNL1 0.000
    44 H      -9.581590    -3.283160     1.484606 H          1 UNL1 0.000
    45 H     -10.034342    -4.354873     3.649311 H          1 UNL1 0.000
    46 H     -10.061264    -6.829210     3.841595 H          1 UNL1 0.000
    47 H      -9.602551    -8.227711     1.843285 H          1 UNL1 0.000
    48 H      -9.106460    -7.174636    -0.325390 H          1 UNL1 0.000
    49 H     -11.414715    -5.770116    -1.299319 H          1 UNL1 0.000
    50 H     -12.216145    -6.750597    -3.407869 H          1 UNL1 0.000
    51 H     -10.835119    -6.602526    -5.464798 H          1 UNL1 0.000
    52 H      -8.626906    -5.471728    -5.390324 H          1 UNL1 0.000
    53 H      -7.789175    -4.520232    -3.283547 H          1 UNL1 0.000
    54 H      -4.445105    -0.426632    -2.664738 H          1 UNL1 0.000
    55 H      -1.983886    -0.354479    -2.581098 H          1 UNL1 0.000
    56 H      -2.177309     1.360887     1.374975 H          1 UNL1 0.000
    57 H      -4.633061     1.306129     1.273054 H          1 UNL1 0.000
    58 H       0.032144     0.890662    -1.514217 H          1 UNL1 0.000
    59 H      -0.109345    -0.161313     1.391339 H          1 UNL1 0.000
    60 C       1.782916     0.287481     0.424003 C          1 UNL1 0.000
    61 C       2.441106     1.523847     0.421799 C          1 UNL1 0.000
    62 C       3.836656     1.577464     0.389447 C          1 UNL1 0.000
    63 C       4.571013     0.393056     0.368710 C          1 UNL1 0.000
    64 C       3.925774    -0.840605     0.339375 C          1 UNL1 0.000
    65 C       2.531390    -0.894066     0.380314 C          1 UNL1 0.000
    66 O       5.937506     0.405539     0.304766 O          1 UNL1 0.000
    67 C       6.495889     0.826083     1.549450 C          1 UNL1 0.000
    68 H       1.871434     2.449933     0.443592 H          1 UNL1 0.000
    69 H       4.340731     2.538794     0.368274 H          1 UNL1 0.000
    70 H       4.506203    -1.757107     0.289839 H          1 UNL1 0.000
    71 H       2.033772    -1.860714     0.365448 H          1 UNL1 0.000
    72 H       7.577764     0.670119     1.499923 H          1 UNL1 0.000
    73 H       6.106681     0.229565     2.382651 H          1 UNL1 0.000
    74 H       6.316181     1.891800     1.724580 H          1 UNL1 0.000
@<TRIPOS>BOND
     1      1      2   2
     2      2      3   1
     3      3      4   2
     4      4      5   1
     5      5      6   2
     6      6      1   1
     7      4      7   1
     8      7      8   1
     9      8      9   2
    10      9     10   1
    11     10     11   2
    12     11     12   1
    13     12     13   2
    14     13      8   1
    15     25     26   2
    16     24     25   1
    17     23     24   2
    18     22     23   1
    19     21     22   2
    20     21     26   1
    21     19     20   2
    22     18     19   1
    23     17     18   2
    24     16     17   1
    25     15     16   2
    26     15     20   1
    27     14     15   1
    28     14     21   1
    29     11     14   1
    30     27     28   2
    31     28     29   1
    32     29     30   2
    33     30     31   1
    34     31     32   2
    35     32     27   1
    36     30     33   1
    37     33     34   2
    38      7     27   1
    39      1     35   1
    40      2     36   1
    41      3     37   1
    42      5     38   1
    43      6     39   1
    44      9     40   1
    45     10     41   1
    46     12     42   1
    47     13     43   1
    48     16     44   1
    49     17     45   1
    50     18     46   1
    51     19     47   1
    52     20     48   1
    53     22     49   1
    54     23     50   1
    55     24     51   1
    56     25     52   1
    57     26     53   1
    58     28     54   1
    59     29     55   1
    60     31     56   1
    61     32     57   1
    62     33     58   1
    63     34     59   1
    64     60     61   2
    65     61     62   1
    66     62     63   2
    67     63     64   1
    68     64     65   2
    69     65     60   1
    70     66     67   1
    71     63     66   1
    72     61     68   1
    73     62     69   1
    74     64     70   1
    75     65     71   1
    76     67     72   1
    77     67     73   1
    78     67     74   1
    79     34     60   1
