# Produced with molli package
@<TRIPOS>MOLECULE
J_7_L
74 80 0 0 0
SMALL
USER_CHARGES

@<TRIPOS>ATOM
     1 C      -8.071112     4.185122    -1.282584 C          1 UNL1 0.000
     2 C      -8.509151     3.082011    -2.011567 C          1 UNL1 0.000
     3 C      -7.897724     1.835974    -1.837397 C          1 UNL1 0.000
     4 C      -6.853695     1.664907    -0.913493 C          1 UNL1 0.000
     5 C      -6.413265     2.799726    -0.204680 C          1 UNL1 0.000
     6 C      -7.017051     4.046793    -0.384788 C          1 UNL1 0.000
     7 N      -6.215648     0.385687    -0.702213 N          1 UNL1 0.000
     8 C      -6.944003    -0.866633    -0.655124 C          1 UNL1 0.000
     9 C      -8.331641    -0.915127    -0.428444 C          1 UNL1 0.000
    10 C      -9.038409    -2.124563    -0.459959 C          1 UNL1 0.000
    11 C      -8.365786    -3.337109    -0.642145 C          1 UNL1 0.000
    12 C      -6.977577    -3.317976    -0.796664 C          1 UNL1 0.000
    13 C      -6.285281    -2.101660    -0.829701 C          1 UNL1 0.000
    14 N      -9.087761    -4.576316    -0.679140 N          1 UNL1 0.000
    15 C      -9.295604    -5.306346     0.552155 C          1 UNL1 0.000
    16 C      -9.361979    -4.650381     1.795898 C          1 UNL1 0.000
    17 C      -9.585958    -5.356318     2.982938 C          1 UNL1 0.000
    18 C      -9.731709    -6.739092     2.955985 C          1 UNL1 0.000
    19 C      -9.637584    -7.417437     1.745254 C          1 UNL1 0.000
    20 C      -9.412970    -6.709242     0.559649 C          1 UNL1 0.000
    21 C      -9.602005    -5.033370    -1.951733 C          1 UNL1 0.000
    22 C     -10.839220    -5.697400    -2.043406 C          1 UNL1 0.000
    23 C     -11.331421    -6.154209    -3.270845 C          1 UNL1 0.000
    24 C     -10.603250    -5.942957    -4.437684 C          1 UNL1 0.000
    25 C      -9.390627    -5.264346    -4.379415 C          1 UNL1 0.000
    26 C      -8.900521    -4.808124    -3.151246 C          1 UNL1 0.000
    27 C      -4.777694     0.377261    -0.628390 C          1 UNL1 0.000
    28 C      -4.015690     0.773859    -1.737810 C          1 UNL1 0.000
    29 C      -2.620572     0.731797    -1.691446 C          1 UNL1 0.000
    30 C      -1.962577     0.323067    -0.526289 C          1 UNL1 0.000
    31 C      -2.719872    -0.061731     0.587427 C          1 UNL1 0.000
    32 C      -4.117207    -0.038008     0.536817 C          1 UNL1 0.000
    33 C      -0.498512     0.253377    -0.528266 C          1 UNL1 0.000
    34 C       0.263716     0.769871     0.448480 C          1 UNL1 0.000
    35 H      -8.546025     5.153189    -1.418689 H          1 UNL1 0.000
    36 H      -9.324970     3.189949    -2.721546 H          1 UNL1 0.000
    37 H      -8.237476     0.999595    -2.443008 H          1 UNL1 0.000
    38 H      -5.600385     2.714928     0.512793 H          1 UNL1 0.000
    39 H      -6.663639     4.905364     0.180155 H          1 UNL1 0.000
    40 H      -8.895025    -0.009057    -0.223259 H          1 UNL1 0.000
    41 H     -10.116642    -2.121378    -0.321000 H          1 UNL1 0.000
    42 H      -6.434357    -4.250218    -0.929136 H          1 UNL1 0.000
    43 H      -5.214361    -2.143112    -1.011571 H          1 UNL1 0.000
    44 H      -9.261399    -3.571181     1.863293 H          1 UNL1 0.000
    45 H      -9.648507    -4.819575     3.926038 H          1 UNL1 0.000
    46 H      -9.909485    -7.286829     3.877453 H          1 UNL1 0.000
    47 H      -9.733850    -8.499608     1.718727 H          1 UNL1 0.000
    48 H      -9.313910    -7.274055    -0.364184 H          1 UNL1 0.000
    49 H     -11.445186    -5.852070    -1.153936 H          1 UNL1 0.000
    50 H     -12.286720    -6.670645    -3.312089 H          1 UNL1 0.000
    51 H     -10.982852    -6.299503    -5.391444 H          1 UNL1 0.000
    52 H      -8.819114    -5.089190    -5.287287 H          1 UNL1 0.000
    53 H      -7.945129    -4.292123    -3.148926 H          1 UNL1 0.000
    54 H      -4.512639     1.090740    -2.651506 H          1 UNL1 0.000
    55 H      -2.053427     1.025114    -2.571913 H          1 UNL1 0.000
    56 H      -2.230306    -0.398628     1.498054 H          1 UNL1 0.000
    57 H      -4.693607    -0.342024     1.406922 H          1 UNL1 0.000
    58 H      -0.047631    -0.215389    -1.399875 H          1 UNL1 0.000
    59 H      -0.171162     1.292397     1.295969 H          1 UNL1 0.000
    60 C       1.728641     0.711642     0.405747 C          1 UNL1 0.000
    61 C       2.400896    -0.507815     0.266521 C          1 UNL1 0.000
    62 C       3.798879    -0.572126     0.236139 C          1 UNL1 0.000
    63 C       4.503138     0.630681     0.351933 C          1 UNL1 0.000
    64 C       3.868200     1.863406     0.500361 C          1 UNL1 0.000
    65 C       2.459891     1.902700     0.535653 C          1 UNL1 0.000
    66 N       5.858794     0.871218     0.350199 N          1 UNL1 0.000
    67 C       6.101896     2.212279     0.487198 C          1 UNL1 0.000
    68 C       4.887342     2.852192     0.583505 C          1 UNL1 0.000
    69 H       1.835332    -1.434240     0.185566 H          1 UNL1 0.000
    70 H       4.309011    -1.523391     0.127386 H          1 UNL1 0.000
    71 H       1.950887     2.855738     0.647267 H          1 UNL1 0.000
    72 H       6.566958     0.156298     0.258001 H          1 UNL1 0.000
    73 H       7.113779     2.593873     0.504138 H          1 UNL1 0.000
    74 H       4.743167     3.918262     0.699471 H          1 UNL1 0.000
@<TRIPOS>BOND
     1      1      2   2
     2      2      3   1
     3      3      4   2
     4      4      5   1
     5      5      6   2
     6      6      1   1
     7      4      7   1
     8      7      8   1
     9      8      9   2
    10      9     10   1
    11     10     11   2
    12     11     12   1
    13     12     13   2
    14     13      8   1
    15     25     26   2
    16     24     25   1
    17     23     24   2
    18     22     23   1
    19     21     22   2
    20     21     26   1
    21     19     20   2
    22     18     19   1
    23     17     18   2
    24     16     17   1
    25     15     16   2
    26     15     20   1
    27     14     15   1
    28     14     21   1
    29     11     14   1
    30     27     28   2
    31     28     29   1
    32     29     30   2
    33     30     31   1
    34     31     32   2
    35     32     27   1
    36     30     33   1
    37     33     34   2
    38      7     27   1
    39      1     35   1
    40      2     36   1
    41      3     37   1
    42      5     38   1
    43      6     39   1
    44      9     40   1
    45     10     41   1
    46     12     42   1
    47     13     43   1
    48     16     44   1
    49     17     45   1
    50     18     46   1
    51     19     47   1
    52     20     48   1
    53     22     49   1
    54     23     50   1
    55     24     51   1
    56     25     52   1
    57     26     53   1
    58     28     54   1
    59     29     55   1
    60     31     56   1
    61     32     57   1
    62     33     58   1
    63     34     59   1
    64     60     61   2
    65     61     62   1
    66     62     63   2
    67     63     64   1
    68     64     65   2
    69     65     60   1
    70     63     66   1
    71     66     67   1
    72     67     68   2
    73     68     64   1
    74     61     69   1
    75     62     70   1
    76     65     71   1
    77     66     72   1
    78     67     73   1
    79     68     74   1
    80     34     60   1
