# Produced with molli package
@<TRIPOS>MOLECULE
J_7_M
71 76 0 0 0
SMALL
USER_CHARGES

@<TRIPOS>ATOM
     1 C      -7.975742     4.246412    -0.910941 C          1 UNL1 0.000
     2 C      -8.714887     3.126528    -1.273198 C          1 UNL1 0.000
     3 C      -8.114660     1.858340    -1.303909 C          1 UNL1 0.000
     4 C      -6.780478     1.659335    -0.908721 C          1 UNL1 0.000
     5 C      -6.048405     2.828149    -0.594153 C          1 UNL1 0.000
     6 C      -6.632575     4.100674    -0.596156 C          1 UNL1 0.000
     7 N      -6.152212     0.345777    -0.854188 N          1 UNL1 0.000
     8 C      -6.863897    -0.921539    -0.809329 C          1 UNL1 0.000
     9 C      -8.163835    -1.050563    -0.290805 C          1 UNL1 0.000
    10 C      -8.854153    -2.273388    -0.318028 C          1 UNL1 0.000
    11 C      -8.245670    -3.430689    -0.819196 C          1 UNL1 0.000
    12 C      -6.926327    -3.341404    -1.270991 C          1 UNL1 0.000
    13 C      -6.251311    -2.111657    -1.260493 C          1 UNL1 0.000
    14 N      -8.949007    -4.690835    -0.832955 N          1 UNL1 0.000
    15 C      -9.371659    -5.241097     0.443145 C          1 UNL1 0.000
    16 C      -8.669756    -4.924033     1.626667 C          1 UNL1 0.000
    17 C      -9.042606    -5.447333     2.868726 C          1 UNL1 0.000
    18 C     -10.118785    -6.321215     2.958650 C          1 UNL1 0.000
    19 C     -10.842746    -6.638714     1.813905 C          1 UNL1 0.000
    20 C     -10.489615    -6.082387     0.577380 C          1 UNL1 0.000
    21 C      -9.210416    -5.325769    -2.114336 C          1 UNL1 0.000
    22 C      -9.430603    -6.709112    -2.246394 C          1 UNL1 0.000
    23 C      -9.761113    -7.287891    -3.479690 C          1 UNL1 0.000
    24 C      -9.820920    -6.505188    -4.627326 C          1 UNL1 0.000
    25 C      -9.542537    -5.146469    -4.543131 C          1 UNL1 0.000
    26 C      -9.249153    -4.565531    -3.303200 C          1 UNL1 0.000
    27 C      -4.712414     0.301002    -0.791136 C          1 UNL1 0.000
    28 C      -3.943465     0.313848    -1.961359 C          1 UNL1 0.000
    29 C      -2.544629     0.317258    -1.889127 C          1 UNL1 0.000
    30 C      -1.881541     0.336508    -0.651156 C          1 UNL1 0.000
    31 C      -2.661538     0.326111     0.514904 C          1 UNL1 0.000
    32 C      -4.059928     0.295200     0.448135 C          1 UNL1 0.000
    33 C      -0.403699     0.372090    -0.642972 C          1 UNL1 0.000
    34 C       0.374140     0.436046     0.449799 C          1 UNL1 0.000
    35 H      -8.438737     5.229177    -0.891184 H          1 UNL1 0.000
    36 H      -9.762623     3.235031    -1.542306 H          1 UNL1 0.000
    37 H      -8.723886     1.034979    -1.662328 H          1 UNL1 0.000
    38 H      -4.994977     2.778176    -0.332502 H          1 UNL1 0.000
    39 H      -6.031383     4.970825    -0.345131 H          1 UNL1 0.000
    40 H      -8.669669    -0.205895     0.167507 H          1 UNL1 0.000
    41 H      -9.874984    -2.319536     0.054794 H          1 UNL1 0.000
    42 H      -6.411039    -4.232867    -1.620637 H          1 UNL1 0.000
    43 H      -5.227982    -2.109331    -1.625367 H          1 UNL1 0.000
    44 H      -7.805432    -4.264570     1.597846 H          1 UNL1 0.000
    45 H      -8.483113    -5.173819     3.759385 H          1 UNL1 0.000
    46 H     -10.397359    -6.746238     3.919096 H          1 UNL1 0.000
    47 H     -11.690486    -7.315923     1.879682 H          1 UNL1 0.000
    48 H     -11.117326    -6.315179    -0.278132 H          1 UNL1 0.000
    49 H      -9.345778    -7.370799    -1.389039 H          1 UNL1 0.000
    50 H      -9.968406    -8.353491    -3.539266 H          1 UNL1 0.000
    51 H     -10.074625    -6.953370    -5.584395 H          1 UNL1 0.000
    52 H      -9.562944    -4.529442    -5.437805 H          1 UNL1 0.000
    53 H      -9.065736    -3.494079    -3.282902 H          1 UNL1 0.000
    54 H      -4.436310     0.316727    -2.930394 H          1 UNL1 0.000
    55 H      -1.979887     0.315015    -2.819129 H          1 UNL1 0.000
    56 H      -2.205457     0.351231     1.499852 H          1 UNL1 0.000
    57 H      -4.644640     0.304119     1.364853 H          1 UNL1 0.000
    58 H       0.070247     0.347697    -1.623394 H          1 UNL1 0.000
    59 H      -0.024322     0.466164     1.457993 H          1 UNL1 0.000
    60 C       1.836121     0.471646     0.374851 C          1 UNL1 0.000
    61 C       2.571411    -0.717214     0.428794 C          1 UNL1 0.000
    62 C       3.969568    -0.681857     0.425949 C          1 UNL1 0.000
    63 C       4.640981     0.543964     0.365975 C          1 UNL1 0.000
    64 C       3.906939     1.732605     0.291827 C          1 UNL1 0.000
    65 C       2.508692     1.695761     0.294468 C          1 UNL1 0.000
    66 C       6.073517     0.582566     0.395221 C          1 UNL1 0.000
    67 N       7.234420     0.614254     0.426588 N          1 UNL1 0.000
    68 H       2.060844    -1.676265     0.489156 H          1 UNL1 0.000
    69 H       4.527236    -1.614976     0.482769 H          1 UNL1 0.000
    70 H       4.415725     2.693755     0.243751 H          1 UNL1 0.000
    71 H       1.949216     2.628009     0.250143 H          1 UNL1 0.000
@<TRIPOS>BOND
     1      1      2   2
     2      2      3   1
     3      3      4   2
     4      4      5   1
     5      5      6   2
     6      6      1   1
     7      4      7   1
     8      7      8   1
     9      8      9   2
    10      9     10   1
    11     10     11   2
    12     11     12   1
    13     12     13   2
    14     13      8   1
    15     25     26   2
    16     24     25   1
    17     23     24   2
    18     22     23   1
    19     21     22   2
    20     21     26   1
    21     19     20   2
    22     18     19   1
    23     17     18   2
    24     16     17   1
    25     15     16   2
    26     15     20   1
    27     14     15   1
    28     14     21   1
    29     11     14   1
    30     27     28   2
    31     28     29   1
    32     29     30   2
    33     30     31   1
    34     31     32   2
    35     32     27   1
    36     30     33   1
    37     33     34   2
    38      7     27   1
    39      1     35   1
    40      2     36   1
    41      3     37   1
    42      5     38   1
    43      6     39   1
    44      9     40   1
    45     10     41   1
    46     12     42   1
    47     13     43   1
    48     16     44   1
    49     17     45   1
    50     18     46   1
    51     19     47   1
    52     20     48   1
    53     22     49   1
    54     23     50   1
    55     24     51   1
    56     25     52   1
    57     26     53   1
    58     28     54   1
    59     29     55   1
    60     31     56   1
    61     32     57   1
    62     33     58   1
    63     34     59   1
    64     60     61   2
    65     61     62   1
    66     62     63   2
    67     63     64   1
    68     64     65   2
    69     65     60   1
    70     66     67   3
    71     63     66   1
    72     61     68   1
    73     62     69   1
    74     64     70   1
    75     65     71   1
    76     34     60   1
