# Produced with molli package
@<TRIPOS>MOLECULE
J_7_K
72 77 0 0 0
SMALL
USER_CHARGES

@<TRIPOS>ATOM
     1 C      -8.081652     4.194335    -0.438164 C          1 UNL1 0.000
     2 C      -8.661131     3.077797     0.157638 C          1 UNL1 0.000
     3 C      -8.038213     1.826957     0.068307 C          1 UNL1 0.000
     4 C      -6.845650     1.655670    -0.653781 C          1 UNL1 0.000
     5 C      -6.268306     2.809291    -1.225260 C          1 UNL1 0.000
     6 C      -6.876416     4.063504    -1.118212 C          1 UNL1 0.000
     7 N      -6.190418     0.370255    -0.788317 N          1 UNL1 0.000
     8 C      -6.889955    -0.898109    -0.866917 C          1 UNL1 0.000
     9 C      -8.255243    -0.988057    -1.190560 C          1 UNL1 0.000
    10 C      -8.940111    -2.211262    -1.160868 C          1 UNL1 0.000
    11 C      -8.258709    -3.405294    -0.902244 C          1 UNL1 0.000
    12 C      -6.881276    -3.349347    -0.676993 C          1 UNL1 0.000
    13 C      -6.217606    -2.116430    -0.632003 C          1 UNL1 0.000
    14 N      -8.958437    -4.660781    -0.877771 N          1 UNL1 0.000
    15 C      -9.417902    -5.162236     0.404179 C          1 UNL1 0.000
    16 C      -8.686434    -4.944429     1.588240 C          1 UNL1 0.000
    17 C      -9.114017    -5.452281     2.820596 C          1 UNL1 0.000
    18 C     -10.294902    -6.180449     2.902896 C          1 UNL1 0.000
    19 C     -11.059428    -6.379006     1.758125 C          1 UNL1 0.000
    20 C     -10.632858    -5.862512     0.528317 C          1 UNL1 0.000
    21 C      -9.211962    -5.348499    -2.130578 C          1 UNL1 0.000
    22 C      -9.422408    -6.740027    -2.180679 C          1 UNL1 0.000
    23 C      -9.704708    -7.399187    -3.383585 C          1 UNL1 0.000
    24 C      -9.750052    -6.687090    -4.576672 C          1 UNL1 0.000
    25 C      -9.495027    -5.321388    -4.568547 C          1 UNL1 0.000
    26 C      -9.221977    -4.664711    -3.362870 C          1 UNL1 0.000
    27 C      -4.752353     0.370519    -0.725322 C          1 UNL1 0.000
    28 C      -3.981003     0.126458    -1.867948 C          1 UNL1 0.000
    29 C      -2.583372     0.162633    -1.795991 C          1 UNL1 0.000
    30 C      -1.928448     0.419433    -0.581070 C          1 UNL1 0.000
    31 C      -2.709034     0.658404     0.558412 C          1 UNL1 0.000
    32 C      -4.104889     0.637785     0.487794 C          1 UNL1 0.000
    33 C      -0.454688     0.471597    -0.567862 C          1 UNL1 0.000
    34 C       0.310662     0.399763     0.532720 C          1 UNL1 0.000
    35 H      -8.562808     5.165933    -0.364227 H          1 UNL1 0.000
    36 H      -9.597010     3.178102     0.701303 H          1 UNL1 0.000
    37 H      -8.495254     0.990088     0.589377 H          1 UNL1 0.000
    38 H      -5.334120     2.742143    -1.777484 H          1 UNL1 0.000
    39 H      -6.406426     4.932563    -1.571105 H          1 UNL1 0.000
    40 H      -8.822333    -0.105890    -1.473019 H          1 UNL1 0.000
    41 H     -10.007738    -2.233499    -1.366204 H          1 UNL1 0.000
    42 H      -6.323745    -4.265719    -0.499790 H          1 UNL1 0.000
    43 H      -5.157112    -2.133700    -0.393938 H          1 UNL1 0.000
    44 H      -7.752882    -4.391747     1.576781 H          1 UNL1 0.000
    45 H      -8.516719    -5.278810     3.712178 H          1 UNL1 0.000
    46 H     -10.622561    -6.582488     3.857832 H          1 UNL1 0.000
    47 H     -11.992728    -6.932700     1.818156 H          1 UNL1 0.000
    48 H     -11.275306    -6.006069    -0.336903 H          1 UNL1 0.000
    49 H      -9.355547    -7.342533    -1.278467 H          1 UNL1 0.000
    50 H      -9.882838    -8.471323    -3.383520 H          1 UNL1 0.000
    51 H      -9.970123    -7.195926    -5.511091 H          1 UNL1 0.000
    52 H      -9.508718    -4.757828    -5.497940 H          1 UNL1 0.000
    53 H      -9.030528    -3.597616    -3.415391 H          1 UNL1 0.000
    54 H      -4.470116    -0.068554    -2.818998 H          1 UNL1 0.000
    55 H      -2.012357    -0.012058    -2.705454 H          1 UNL1 0.000
    56 H      -2.253013     0.877009     1.519528 H          1 UNL1 0.000
    57 H      -4.692413     0.824324     1.383569 H          1 UNL1 0.000
    58 H       0.021200     0.559520    -1.543269 H          1 UNL1 0.000
    59 H      -0.100686     0.280540     1.529807 H          1 UNL1 0.000
    60 C       1.771545     0.443612     0.467573 C          1 UNL1 0.000
    61 C       2.501707    -0.742138     0.620468 C          1 UNL1 0.000
    62 C       3.897775    -0.717537     0.603422 C          1 UNL1 0.000
    63 C       4.556856     0.504497     0.427569 C          1 UNL1 0.000
    64 C       3.840259     1.695467     0.260986 C          1 UNL1 0.000
    65 C       2.443463     1.659562     0.282874 C          1 UNL1 0.000
    66 N       6.017781     0.537570     0.429145 N          1 UNL1 0.000
    67 O       6.570454     1.425485    -0.235646 O          1 UNL1 0.000
    68 O       6.608171    -0.322701     1.096940 O          1 UNL1 0.000
    69 H       1.984532    -1.690089     0.757487 H          1 UNL1 0.000
    70 H       4.452096    -1.645204     0.727576 H          1 UNL1 0.000
    71 H       4.351276     2.646763     0.128310 H          1 UNL1 0.000
    72 H       1.882185     2.585310     0.169355 H          1 UNL1 0.000
@<TRIPOS>BOND
     1      1      2   2
     2      2      3   1
     3      3      4   2
     4      4      5   1
     5      5      6   2
     6      6      1   1
     7      4      7   1
     8      7      8   1
     9      8      9   2
    10      9     10   1
    11     10     11   2
    12     11     12   1
    13     12     13   2
    14     13      8   1
    15     25     26   2
    16     24     25   1
    17     23     24   2
    18     22     23   1
    19     21     22   2
    20     21     26   1
    21     19     20   2
    22     18     19   1
    23     17     18   2
    24     16     17   1
    25     15     16   2
    26     15     20   1
    27     14     15   1
    28     14     21   1
    29     11     14   1
    30     27     28   2
    31     28     29   1
    32     29     30   2
    33     30     31   1
    34     31     32   2
    35     32     27   1
    36     30     33   1
    37     33     34   2
    38      7     27   1
    39      1     35   1
    40      2     36   1
    41      3     37   1
    42      5     38   1
    43      6     39   1
    44      9     40   1
    45     10     41   1
    46     12     42   1
    47     13     43   1
    48     16     44   1
    49     17     45   1
    50     18     46   1
    51     19     47   1
    52     20     48   1
    53     22     49   1
    54     23     50   1
    55     24     51   1
    56     25     52   1
    57     26     53   1
    58     28     54   1
    59     29     55   1
    60     31     56   1
    61     32     57   1
    62     33     58   1
    63     34     59   1
    64     60     61   2
    65     61     62   1
    66     62     63   2
    67     63     64   1
    68     64     65   2
    69     65     60   1
    70     66     67   2
    71     66     68   1
    72     63     66   1
    73     61     69   1
    74     62     70   1
    75     64     71   1
    76     65     72   1
    77     34     60   1
