# Produced with molli package
@<TRIPOS>MOLECULE
J_7_R
71 76 0 0 0
SMALL
USER_CHARGES

@<TRIPOS>ATOM
     1 C      -8.027254     4.182607    -0.975469 C          1 UNL1 0.000
     2 C      -8.621063     3.076476    -1.576327 C          1 UNL1 0.000
     3 C      -7.994910     1.826196    -1.522732 C          1 UNL1 0.000
     4 C      -6.772299     1.649894    -0.850757 C          1 UNL1 0.000
     5 C      -6.182088     2.790917    -0.272426 C          1 UNL1 0.000
     6 C      -6.803377     4.042198    -0.329973 C          1 UNL1 0.000
     7 N      -6.128094     0.358636    -0.769099 N          1 UNL1 0.000
     8 C      -6.859073    -0.886994    -0.740370 C          1 UNL1 0.000
     9 C      -8.120625    -0.988433    -0.129543 C          1 UNL1 0.000
    10 C      -8.829952    -2.195627    -0.123797 C          1 UNL1 0.000
    11 C      -8.295700    -3.342065    -0.727688 C          1 UNL1 0.000
    12 C      -7.027528    -3.260697    -1.315110 C          1 UNL1 0.000
    13 C      -6.317608    -2.055003    -1.310460 C          1 UNL1 0.000
    14 N      -9.033466    -4.579021    -0.742172 N          1 UNL1 0.000
    15 C      -9.460400    -5.144717     0.518705 C          1 UNL1 0.000
    16 C      -8.683353    -4.974007     1.682062 C          1 UNL1 0.000
    17 C      -9.083941    -5.506315     2.910730 C          1 UNL1 0.000
    18 C     -10.269950    -6.227182     3.002254 C          1 UNL1 0.000
    19 C     -11.059707    -6.404869     1.869438 C          1 UNL1 0.000
    20 C     -10.663779    -5.860322     0.642778 C          1 UNL1 0.000
    21 C      -9.335418    -5.195827    -2.016311 C          1 UNL1 0.000
    22 C      -9.440193    -6.590500    -2.160366 C          1 UNL1 0.000
    23 C      -9.753459    -7.171432    -3.394736 C          1 UNL1 0.000
    24 C      -9.946257    -6.370605    -4.517053 C          1 UNL1 0.000
    25 C      -9.823352    -4.989544    -4.407809 C          1 UNL1 0.000
    26 C      -9.523214    -4.409971    -3.171285 C          1 UNL1 0.000
    27 C      -4.694202     0.310286    -0.704242 C          1 UNL1 0.000
    28 C      -3.923230     0.569221    -1.845492 C          1 UNL1 0.000
    29 C      -2.528729     0.508604    -1.782632 C          1 UNL1 0.000
    30 C      -1.884011     0.227922    -0.571834 C          1 UNL1 0.000
    31 C      -2.654620    -0.029480     0.569078 C          1 UNL1 0.000
    32 C      -4.050034     0.001140     0.501679 C          1 UNL1 0.000
    33 C      -0.419393     0.156578    -0.545947 C          1 UNL1 0.000
    34 C       0.333612     0.761959     0.387309 C          1 UNL1 0.000
    35 H      -8.513888     5.153463    -1.015560 H          1 UNL1 0.000
    36 H      -9.571479     3.183728    -2.092591 H          1 UNL1 0.000
    37 H      -8.470642     0.990315    -2.029364 H          1 UNL1 0.000
    38 H      -5.233016     2.716622     0.252240 H          1 UNL1 0.000
    39 H      -6.329072     4.902702     0.134546 H          1 UNL1 0.000
    40 H      -8.565616    -0.127636     0.363290 H          1 UNL1 0.000
    41 H      -9.812745    -2.234965     0.339969 H          1 UNL1 0.000
    42 H      -6.580735    -4.142204    -1.768813 H          1 UNL1 0.000
    43 H      -5.338141    -2.039197    -1.781749 H          1 UNL1 0.000
    44 H      -7.741768    -4.431217     1.639545 H          1 UNL1 0.000
    45 H      -8.464765    -5.357850     3.791492 H          1 UNL1 0.000
    46 H     -10.580129    -6.646096     3.955824 H          1 UNL1 0.000
    47 H     -11.990135    -6.962366     1.938283 H          1 UNL1 0.000
    48 H     -11.319241    -5.988513    -0.214899 H          1 UNL1 0.000
    49 H      -9.264989    -7.246443    -1.311372 H          1 UNL1 0.000
    50 H      -9.841477    -8.251628    -3.477434 H          1 UNL1 0.000
    51 H     -10.187389    -6.821856    -5.475909 H          1 UNL1 0.000
    52 H      -9.964923    -4.357705    -5.280776 H          1 UNL1 0.000
    53 H      -9.454034    -3.326058    -3.117170 H          1 UNL1 0.000
    54 H      -4.412961     0.793980    -2.789618 H          1 UNL1 0.000
    55 H      -1.950251     0.689689    -2.685836 H          1 UNL1 0.000
    56 H      -2.178579    -0.270630     1.516166 H          1 UNL1 0.000
    57 H      -4.639472    -0.199269     1.392755 H          1 UNL1 0.000
    58 H       0.041526    -0.404046    -1.356854 H          1 UNL1 0.000
    59 H      -0.135158     1.347897     1.172267 H          1 UNL1 0.000
    60 C       1.801669     0.701495     0.411801 C          1 UNL1 0.000
    61 N       2.408022    -0.145816    -0.459896 N          1 UNL1 0.000
    62 C       3.760699    -0.212591    -0.437320 C          1 UNL1 0.000
    63 C       4.526917     0.536978     0.433510 C          1 UNL1 0.000
    64 C       3.911417     1.406073     1.330083 C          1 UNL1 0.000
    65 C       2.518906     1.489359     1.313786 C          1 UNL1 0.000
    66 N       5.962159     0.404192     0.405775 N          1 UNL1 0.000
    67 O       6.535623     0.235990     1.486647 O          1 UNL1 0.000
    68 O       6.513921     0.472435    -0.702777 O          1 UNL1 0.000
    69 H       4.199656    -0.907544    -1.148447 H          1 UNL1 0.000
    70 H       4.491379     2.011382     2.021293 H          1 UNL1 0.000
    71 H       2.008970     2.165095     1.994014 H          1 UNL1 0.000
@<TRIPOS>BOND
     1      1      2   2
     2      2      3   1
     3      3      4   2
     4      4      5   1
     5      5      6   2
     6      6      1   1
     7      4      7   1
     8      7      8   1
     9      8      9   2
    10      9     10   1
    11     10     11   2
    12     11     12   1
    13     12     13   2
    14     13      8   1
    15     25     26   2
    16     24     25   1
    17     23     24   2
    18     22     23   1
    19     21     22   2
    20     21     26   1
    21     19     20   2
    22     18     19   1
    23     17     18   2
    24     16     17   1
    25     15     16   2
    26     15     20   1
    27     14     15   1
    28     14     21   1
    29     11     14   1
    30     27     28   2
    31     28     29   1
    32     29     30   2
    33     30     31   1
    34     31     32   2
    35     32     27   1
    36     30     33   1
    37     33     34   2
    38      7     27   1
    39      1     35   1
    40      2     36   1
    41      3     37   1
    42      5     38   1
    43      6     39   1
    44      9     40   1
    45     10     41   1
    46     12     42   1
    47     13     43   1
    48     16     44   1
    49     17     45   1
    50     18     46   1
    51     19     47   1
    52     20     48   1
    53     22     49   1
    54     23     50   1
    55     24     51   1
    56     25     52   1
    57     26     53   1
    58     28     54   1
    59     29     55   1
    60     31     56   1
    61     32     57   1
    62     33     58   1
    63     34     59   1
    64     60     61   2
    65     61     62   1
    66     62     63   2
    67     63     64   1
    68     64     65   2
    69     65     60   1
    70     66     67   2
    71     66     68   1
    72     63     66   1
    73     62     69   1
    74     64     70   1
    75     65     71   1
    76     34     60   1
