# Produced with molli package
@<TRIPOS>MOLECULE
J_7_Q
68 73 0 0 0
SMALL
USER_CHARGES

@<TRIPOS>ATOM
     1 C      -8.286740     4.053568     0.181764 C          1 UNL1 0.000
     2 C      -8.520667     2.924473     0.965280 C          1 UNL1 0.000
     3 C      -7.860318     1.725246     0.683000 C          1 UNL1 0.000
     4 C      -6.960670     1.638054    -0.392851 C          1 UNL1 0.000
     5 C      -6.725712     2.791150    -1.163623 C          1 UNL1 0.000
     6 C      -7.388237     3.988061    -0.881259 C          1 UNL1 0.000
     7 N      -6.257152     0.413134    -0.693618 N          1 UNL1 0.000
     8 C      -6.953613    -0.853665    -0.800987 C          1 UNL1 0.000
     9 C      -8.347200    -0.910503    -1.000817 C          1 UNL1 0.000
    10 C      -9.037741    -2.128635    -1.026888 C          1 UNL1 0.000
    11 C      -8.345491    -3.337801    -0.919932 C          1 UNL1 0.000
    12 C      -6.954988    -3.307338    -0.780344 C          1 UNL1 0.000
    13 C      -6.276243    -2.084327    -0.695141 C          1 UNL1 0.000
    14 N      -9.052015    -4.585872    -0.925562 N          1 UNL1 0.000
    15 C      -9.675217    -5.034315     0.301154 C          1 UNL1 0.000
    16 C      -9.121893    -4.726017     1.559824 C          1 UNL1 0.000
    17 C      -9.718122    -5.167038     2.747404 C          1 UNL1 0.000
    18 C     -10.890681    -5.914551     2.703896 C          1 UNL1 0.000
    19 C     -11.471227    -6.212502     1.474023 C          1 UNL1 0.000
    20 C     -10.872823    -5.772759     0.286708 C          1 UNL1 0.000
    21 C      -9.111468    -5.345856    -2.153164 C          1 UNL1 0.000
    22 C      -9.086095    -6.752289    -2.141365 C          1 UNL1 0.000
    23 C      -9.160178    -7.489904    -3.328569 C          1 UNL1 0.000
    24 C      -9.251095    -6.836708    -4.554970 C          1 UNL1 0.000
    25 C      -9.253900    -5.445835    -4.595679 C          1 UNL1 0.000
    26 C      -9.176009    -4.708947    -3.407854 C          1 UNL1 0.000
    27 C      -4.818269     0.487838    -0.764926 C          1 UNL1 0.000
    28 C      -4.108924    -0.025463    -1.861645 C          1 UNL1 0.000
    29 C      -2.709723     0.045710    -1.904225 C          1 UNL1 0.000
    30 C      -1.993276     0.621187    -0.847964 C          1 UNL1 0.000
    31 C      -2.697434     1.158315     0.235246 C          1 UNL1 0.000
    32 C      -4.092868     1.095327     0.274631 C          1 UNL1 0.000
    33 C      -0.528263     0.695890    -0.909748 C          1 UNL1 0.000
    34 C       0.248587     0.285588     0.108558 C          1 UNL1 0.000
    35 H      -8.801137     4.985842     0.402587 H          1 UNL1 0.000
    36 H      -9.214017     2.977026     1.800696 H          1 UNL1 0.000
    37 H      -8.038785     0.859979     1.317256 H          1 UNL1 0.000
    38 H      -6.032937     2.753552    -2.001559 H          1 UNL1 0.000
    39 H      -7.201615     4.866866    -1.492899 H          1 UNL1 0.000
    40 H      -8.927627    -0.001015    -1.132663 H          1 UNL1 0.000
    41 H     -10.118275    -2.133319    -1.145079 H          1 UNL1 0.000
    42 H      -6.400173    -4.238213    -0.693602 H          1 UNL1 0.000
    43 H      -5.204353    -2.119770    -0.520171 H          1 UNL1 0.000
    44 H      -8.201121    -4.153553     1.635398 H          1 UNL1 0.000
    45 H      -9.261184    -4.926743     3.704339 H          1 UNL1 0.000
    46 H     -11.353023    -6.258617     3.625970 H          1 UNL1 0.000
    47 H     -12.394877    -6.784187     1.434561 H          1 UNL1 0.000
    48 H     -11.366828    -5.997544    -0.655723 H          1 UNL1 0.000
    49 H      -8.989225    -7.289970    -1.200790 H          1 UNL1 0.000
    50 H      -9.142802    -8.575953    -3.291199 H          1 UNL1 0.000
    51 H      -9.314016    -7.408981    -5.477336 H          1 UNL1 0.000
    52 H      -9.320710    -4.929925    -5.550567 H          1 UNL1 0.000
    53 H      -9.192345    -3.624591    -3.478247 H          1 UNL1 0.000
    54 H      -4.645384    -0.477962    -2.692900 H          1 UNL1 0.000
    55 H      -2.187804    -0.365215    -2.765536 H          1 UNL1 0.000
    56 H      -2.171264     1.633840     1.059916 H          1 UNL1 0.000
    57 H      -4.614066     1.506502     1.136703 H          1 UNL1 0.000
    58 H      -0.113674     1.081771    -1.837074 H          1 UNL1 0.000
    59 H      -0.190779    -0.159307     0.999629 H          1 UNL1 0.000
    60 C       1.711785     0.340681     0.132328 C          1 UNL1 0.000
    61 N       2.306751    -0.628264     0.872620 N          1 UNL1 0.000
    62 C       3.656172    -0.570183     0.950335 C          1 UNL1 0.000
    63 C       4.392711     0.425417     0.330672 C          1 UNL1 0.000
    64 N       3.816609     1.409421    -0.395400 N          1 UNL1 0.000
    65 C       2.463228     1.345839    -0.475552 C          1 UNL1 0.000
    66 H       4.129620    -1.353263     1.533127 H          1 UNL1 0.000
    67 H       5.473217     0.461681     0.405084 H          1 UNL1 0.000
    68 H       2.002286     2.152126    -1.036650 H          1 UNL1 0.000
@<TRIPOS>BOND
     1      1      2   2
     2      2      3   1
     3      3      4   2
     4      4      5   1
     5      5      6   2
     6      6      1   1
     7      4      7   1
     8      7      8   1
     9      8      9   2
    10      9     10   1
    11     10     11   2
    12     11     12   1
    13     12     13   2
    14     13      8   1
    15     25     26   2
    16     24     25   1
    17     23     24   2
    18     22     23   1
    19     21     22   2
    20     21     26   1
    21     19     20   2
    22     18     19   1
    23     17     18   2
    24     16     17   1
    25     15     16   2
    26     15     20   1
    27     14     15   1
    28     14     21   1
    29     11     14   1
    30     27     28   2
    31     28     29   1
    32     29     30   2
    33     30     31   1
    34     31     32   2
    35     32     27   1
    36     30     33   1
    37     33     34   2
    38      7     27   1
    39      1     35   1
    40      2     36   1
    41      3     37   1
    42      5     38   1
    43      6     39   1
    44      9     40   1
    45     10     41   1
    46     12     42   1
    47     13     43   1
    48     16     44   1
    49     17     45   1
    50     18     46   1
    51     19     47   1
    52     20     48   1
    53     22     49   1
    54     23     50   1
    55     24     51   1
    56     25     52   1
    57     26     53   1
    58     28     54   1
    59     29     55   1
    60     31     56   1
    61     32     57   1
    62     33     58   1
    63     34     59   1
    64     60     61   2
    65     61     62   1
    66     62     63   2
    67     63     64   1
    68     64     65   2
    69     65     60   1
    70     62     66   1
    71     63     67   1
    72     65     68   1
    73     34     60   1
