# Produced with molli package
@<TRIPOS>MOLECULE
J_7_T
73 78 0 0 0
SMALL
USER_CHARGES

@<TRIPOS>ATOM
     1 C      -8.183661     4.215850    -1.191685 C          1 UNL1 0.000
     2 C      -8.774278     3.068130    -1.712322 C          1 UNL1 0.000
     3 C      -8.118814     1.835312    -1.618904 C          1 UNL1 0.000
     4 C      -6.866727     1.719608    -0.989071 C          1 UNL1 0.000
     5 C      -6.285396     2.899721    -0.484536 C          1 UNL1 0.000
     6 C      -6.936057     4.133420    -0.582641 C          1 UNL1 0.000
     7 N      -6.187572     0.448936    -0.875677 N          1 UNL1 0.000
     8 C      -6.890552    -0.809262    -0.817546 C          1 UNL1 0.000
     9 C      -8.094740    -0.949146    -0.108775 C          1 UNL1 0.000
    10 C      -8.776442    -2.172396    -0.075334 C          1 UNL1 0.000
    11 C      -8.274317    -3.293510    -0.752768 C          1 UNL1 0.000
    12 C      -7.060441    -3.165991    -1.441962 C          1 UNL1 0.000
    13 C      -6.375226    -1.946783    -1.463961 C          1 UNL1 0.000
    14 N      -8.989358    -4.545107    -0.750067 N          1 UNL1 0.000
    15 C      -9.438807    -5.104760     0.504150 C          1 UNL1 0.000
    16 C      -8.680922    -4.943807     1.679578 C          1 UNL1 0.000
    17 C      -9.108540    -5.480963     2.897105 C          1 UNL1 0.000
    18 C     -10.302652    -6.192774     2.963360 C          1 UNL1 0.000
    19 C     -11.071910    -6.362218     1.815282 C          1 UNL1 0.000
    20 C     -10.646606    -5.818754     0.598972 C          1 UNL1 0.000
    21 C      -9.246162    -5.208995    -2.008667 C          1 UNL1 0.000
    22 C      -9.207896    -6.609846    -2.121758 C          1 UNL1 0.000
    23 C      -9.463887    -7.242751    -3.342480 C          1 UNL1 0.000
    24 C      -9.753126    -6.486291    -4.475466 C          1 UNL1 0.000
    25 C      -9.784824    -5.097477    -4.390701 C          1 UNL1 0.000
    26 C      -9.533731    -4.465796    -3.169526 C          1 UNL1 0.000
    27 C      -4.753841     0.428369    -0.793146 C          1 UNL1 0.000
    28 C      -3.968648     0.800546    -1.891159 C          1 UNL1 0.000
    29 C      -2.572757     0.785373    -1.799776 C          1 UNL1 0.000
    30 C      -1.932549     0.427812    -0.603957 C          1 UNL1 0.000
    31 C      -2.724338     0.049007     0.488798 C          1 UNL1 0.000
    32 C      -4.119865     0.042084     0.394136 C          1 UNL1 0.000
    33 C      -0.459134     0.430214    -0.565769 C          1 UNL1 0.000
    34 C       0.287898     0.446037     0.547615 C          1 UNL1 0.000
    35 H      -8.692137     5.173489    -1.264519 H          1 UNL1 0.000
    36 H      -9.744942     3.128993    -2.197484 H          1 UNL1 0.000
    37 H      -8.595596     0.965088    -2.062716 H          1 UNL1 0.000
    38 H      -5.318187     2.871335     0.011500 H          1 UNL1 0.000
    39 H      -6.465313     5.025768    -0.178405 H          1 UNL1 0.000
    40 H      -8.511610    -0.105749     0.436376 H          1 UNL1 0.000
    41 H      -9.716840    -2.240364     0.466592 H          1 UNL1 0.000
    42 H      -6.634540    -4.022619    -1.959190 H          1 UNL1 0.000
    43 H      -5.441060    -1.890356    -2.017336 H          1 UNL1 0.000
    44 H      -7.734029    -4.409494     1.653083 H          1 UNL1 0.000
    45 H      -8.504124    -5.344646     3.790013 H          1 UNL1 0.000
    46 H     -10.634175    -6.613256     3.909086 H          1 UNL1 0.000
    47 H     -12.007308    -6.913490     1.863545 H          1 UNL1 0.000
    48 H     -11.279693    -5.945205    -0.275967 H          1 UNL1 0.000
    49 H      -8.960675    -7.222927    -1.258456 H          1 UNL1 0.000
    50 H      -9.432140    -8.327250    -3.406709 H          1 UNL1 0.000
    51 H      -9.951112    -6.978271    -5.424162 H          1 UNL1 0.000
    52 H     -10.008214    -4.501657    -5.271795 H          1 UNL1 0.000
    53 H      -9.582423    -3.380201    -3.127280 H          1 UNL1 0.000
    54 H      -4.445550     1.085446    -2.825636 H          1 UNL1 0.000
    55 H      -1.991402     1.064440    -2.676016 H          1 UNL1 0.000
    56 H      -2.275153    -0.250968     1.431108 H          1 UNL1 0.000
    57 H      -4.716056    -0.242165     1.257691 H          1 UNL1 0.000
    58 H       0.036082     0.435283    -1.536259 H          1 UNL1 0.000
    59 H      -0.133562     0.462855     1.547368 H          1 UNL1 0.000
    60 C       1.749884     0.460106     0.487207 C          1 UNL1 0.000
    61 C       2.466281    -0.739560     0.475382 C          1 UNL1 0.000
    62 C       3.863278    -0.724651     0.434620 C          1 UNL1 0.000
    63 C       4.558787     0.489768     0.406613 C          1 UNL1 0.000
    64 C       3.835651     1.689045     0.402991 C          1 UNL1 0.000
    65 C       2.439190     1.674641     0.443582 C          1 UNL1 0.000
    66 C       6.057888     0.519801     0.364024 C          1 UNL1 0.000
    67 H       1.942842    -1.692351     0.501572 H          1 UNL1 0.000
    68 H       4.402478    -1.669092     0.429008 H          1 UNL1 0.000
    69 H       4.356827     2.643204     0.372280 H          1 UNL1 0.000
    70 H       1.894555     2.615769     0.444931 H          1 UNL1 0.000
    71 H       6.446730     1.142374     1.176538 H          1 UNL1 0.000
    72 H       6.399333     0.923598    -0.594242 H          1 UNL1 0.000
    73 H       6.482892    -0.482350     0.482398 H          1 UNL1 0.000
@<TRIPOS>BOND
     1      1      2   2
     2      2      3   1
     3      3      4   2
     4      4      5   1
     5      5      6   2
     6      6      1   1
     7      4      7   1
     8      7      8   1
     9      8      9   2
    10      9     10   1
    11     10     11   2
    12     11     12   1
    13     12     13   2
    14     13      8   1
    15     25     26   2
    16     24     25   1
    17     23     24   2
    18     22     23   1
    19     21     22   2
    20     21     26   1
    21     19     20   2
    22     18     19   1
    23     17     18   2
    24     16     17   1
    25     15     16   2
    26     15     20   1
    27     14     15   1
    28     14     21   1
    29     11     14   1
    30     27     28   2
    31     28     29   1
    32     29     30   2
    33     30     31   1
    34     31     32   2
    35     32     27   1
    36     30     33   1
    37     33     34   2
    38      7     27   1
    39      1     35   1
    40      2     36   1
    41      3     37   1
    42      5     38   1
    43      6     39   1
    44      9     40   1
    45     10     41   1
    46     12     42   1
    47     13     43   1
    48     16     44   1
    49     17     45   1
    50     18     46   1
    51     19     47   1
    52     20     48   1
    53     22     49   1
    54     23     50   1
    55     24     51   1
    56     25     52   1
    57     26     53   1
    58     28     54   1
    59     29     55   1
    60     31     56   1
    61     32     57   1
    62     33     58   1
    63     34     59   1
    64     60     61   2
    65     61     62   1
    66     62     63   2
    67     63     64   1
    68     64     65   2
    69     65     60   1
    70     63     66   1
    71     61     67   1
    72     62     68   1
    73     64     69   1
    74     65     70   1
    75     66     71   1
    76     66     72   1
    77     66     73   1
    78     34     60   1
