# Produced with molli package
@<TRIPOS>MOLECULE
J_8_M
68 74 0 0 0
SMALL
USER_CHARGES

@<TRIPOS>ATOM
     1 C      -5.919127     4.236771     0.371511 C          1 UNL1 0.000
     2 C      -6.598169     3.103450    -0.062539 C          1 UNL1 0.000
     3 C      -5.966887     1.852230    -0.050653 C          1 UNL1 0.000
     4 C      -4.659101     1.691117     0.439991 C          1 UNL1 0.000
     5 C      -3.989280     2.866354     0.845872 C          1 UNL1 0.000
     6 C      -4.607051     4.121169     0.810560 C          1 UNL1 0.000
     7 N      -4.002210     0.398645     0.494786 N          1 UNL1 0.000
     8 C      -4.696216    -0.871163     0.547333 C          1 UNL1 0.000
     9 C      -5.964328    -1.010722     1.136080 C          1 UNL1 0.000
    10 C      -6.647600    -2.235018     1.124553 C          1 UNL1 0.000
    11 C      -6.067087    -3.373953     0.551375 C          1 UNL1 0.000
    12 C      -4.777659    -3.268046     0.019444 C          1 UNL1 0.000
    13 C      -4.105218    -2.039411     0.022506 C          1 UNL1 0.000
    14 N      -6.777945    -4.628992     0.516079 N          1 UNL1 0.000
    15 C      -7.200463    -5.206223     1.777755 C          1 UNL1 0.000
    16 C      -6.469962    -4.955472     2.959259 C          1 UNL1 0.000
    17 C      -6.856533    -5.492088     4.191045 C          1 UNL1 0.000
    18 C      -7.977119    -6.310095     4.270446 C          1 UNL1 0.000
    19 C      -8.723244    -6.568124     3.124269 C          1 UNL1 0.000
    20 C      -8.350490    -6.005192     1.896915 C          1 UNL1 0.000
    21 C      -7.053537    -5.231684    -0.776235 C          1 UNL1 0.000
    22 C      -7.245589    -6.614998    -0.940320 C          1 UNL1 0.000
    23 C      -7.554960    -7.168346    -2.190376 C          1 UNL1 0.000
    24 C      -7.633799    -6.356476    -3.317508 C          1 UNL1 0.000
    25 C      -7.402868    -4.991735    -3.196349 C          1 UNL1 0.000
    26 C      -7.125259    -4.437922    -1.941722 C          1 UNL1 0.000
    27 C      -2.568294     0.375688     0.570958 C          1 UNL1 0.000
    28 C      -1.792464     0.487626    -0.610951 C          1 UNL1 0.000
    29 C      -0.378893     0.502922    -0.624535 C          1 UNL1 0.000
    30 C       0.406865     0.430662     0.545581 C          1 UNL1 0.000
    31 C      -0.310980     0.334120     1.774441 C          1 UNL1 0.000
    32 C      -1.823021     0.297286     1.787201 C          1 UNL1 0.000
    33 N       0.218929     0.279332     3.009950 N          1 UNL1 0.000
    34 S      -1.047813     0.199433     4.074555 S          1 UNL1 0.000
    35 N      -2.331124     0.220680     3.030141 N          1 UNL1 0.000
    36 H      -6.407665     5.207300     0.361327 H          1 UNL1 0.000
    37 H      -7.622332     3.188761    -0.416718 H          1 UNL1 0.000
    38 H      -6.522691     1.006626    -0.445470 H          1 UNL1 0.000
    39 H      -2.970112     2.831804     1.219252 H          1 UNL1 0.000
    40 H      -4.059850     5.001866     1.136922 H          1 UNL1 0.000
    41 H      -6.442430    -0.167929     1.628498 H          1 UNL1 0.000
    42 H      -7.643895    -2.294325     1.556731 H          1 UNL1 0.000
    43 H      -4.289340    -4.146249    -0.396398 H          1 UNL1 0.000
    44 H      -3.112354    -2.015369    -0.416572 H          1 UNL1 0.000
    45 H      -5.575177    -4.337357     2.934850 H          1 UNL1 0.000
    46 H      -6.275977    -5.269872     5.082623 H          1 UNL1 0.000
    47 H      -8.272116    -6.738697     5.224478 H          1 UNL1 0.000
    48 H      -9.604259    -7.202034     3.183153 H          1 UNL1 0.000
    49 H      -8.987810    -6.192081     1.037011 H          1 UNL1 0.000
    50 H      -7.149377    -7.292904    -0.096670 H          1 UNL1 0.000
    51 H      -7.729177    -8.237631    -2.280525 H          1 UNL1 0.000
    52 H      -7.868364    -6.786347    -4.287754 H          1 UNL1 0.000
    53 H      -7.445428    -4.350358    -4.072870 H          1 UNL1 0.000
    54 H      -6.977544    -3.361946    -1.888785 H          1 UNL1 0.000
    55 H      -2.318427     0.558035    -1.564790 H          1 UNL1 0.000
    56 H       0.122764     0.578230    -1.590845 H          1 UNL1 0.000
    57 C       1.864669     0.460976     0.522320 C          1 UNL1 0.000
    58 C       2.603816    -0.731413     0.515881 C          1 UNL1 0.000
    59 C       4.001803    -0.706278     0.507402 C          1 UNL1 0.000
    60 C       4.680588     0.515138     0.504977 C          1 UNL1 0.000
    61 C       3.955393     1.709817     0.504645 C          1 UNL1 0.000
    62 C       2.557050     1.681381     0.511424 C          1 UNL1 0.000
    63 C       6.115694     0.541895     0.507185 C          1 UNL1 0.000
    64 N       7.273376     0.562993     0.506347 N          1 UNL1 0.000
    65 H       2.091064    -1.691781     0.529863 H          1 UNL1 0.000
    66 H       4.551828    -1.645486     0.511006 H          1 UNL1 0.000
    67 H       4.469693     2.669143     0.507343 H          1 UNL1 0.000
    68 H       2.008244     2.621624     0.523375 H          1 UNL1 0.000
@<TRIPOS>BOND
     1      1      2   2
     2      2      3   1
     3      3      4   2
     4      4      5   1
     5      5      6   2
     6      6      1   1
     7      4      7   1
     8      7      8   1
     9      8      9   2
    10      9     10   1
    11     10     11   2
    12     11     12   1
    13     12     13   2
    14     13      8   1
    15     25     26   2
    16     24     25   1
    17     23     24   2
    18     22     23   1
    19     21     22   2
    20     21     26   1
    21     19     20   2
    22     18     19   1
    23     17     18   2
    24     16     17   1
    25     15     16   2
    26     15     20   1
    27     14     15   1
    28     14     21   1
    29     11     14   1
    30     27     28   2
    31     28     29   1
    32     29     30   2
    33     30     31   1
    34     31     32   1
    35     32     27   1
    36     31     33   2
    37     33     34   1
    38     34     35   1
    39     35     32   2
    40      7     27   1
    41      1     36   1
    42      2     37   1
    43      3     38   1
    44      5     39   1
    45      6     40   1
    46      9     41   1
    47     10     42   1
    48     12     43   1
    49     13     44   1
    50     16     45   1
    51     17     46   1
    52     18     47   1
    53     19     48   1
    54     20     49   1
    55     22     50   1
    56     23     51   1
    57     24     52   1
    58     25     53   1
    59     26     54   1
    60     28     55   1
    61     29     56   1
    62     57     58   2
    63     58     59   1
    64     59     60   2
    65     60     61   1
    66     61     62   2
    67     62     57   1
    68     63     64   3
    69     60     63   1
    70     58     65   1
    71     59     66   1
    72     61     67   1
    73     62     68   1
    74     30     57   1
