# Produced with molli package
@<TRIPOS>MOLECULE
J_8_R
68 74 0 0 0
SMALL
USER_CHARGES

@<TRIPOS>ATOM
     1 C      -5.874680     4.268828     0.758799 C          1 UNL1 0.000
     2 C      -6.484675     3.162420     1.342776 C          1 UNL1 0.000
     3 C      -5.881247     1.900844     1.267183 C          1 UNL1 0.000
     4 C      -4.679752     1.707347     0.567036 C          1 UNL1 0.000
     5 C      -4.072631     2.851518     0.005152 C          1 UNL1 0.000
     6 C      -4.659102     4.116899     0.102617 C          1 UNL1 0.000
     7 N      -4.044047     0.411558     0.441719 N          1 UNL1 0.000
     8 C      -4.755050    -0.848483     0.356954 C          1 UNL1 0.000
     9 C      -6.119803    -0.923602     0.028959 C          1 UNL1 0.000
    10 C      -6.816576    -2.139421     0.053446 C          1 UNL1 0.000
    11 C      -6.146741    -3.340659     0.305473 C          1 UNL1 0.000
    12 C      -4.769105    -3.301077     0.532901 C          1 UNL1 0.000
    13 C      -4.094769    -2.074981     0.587573 C          1 UNL1 0.000
    14 N      -6.860647    -4.587624     0.351019 N          1 UNL1 0.000
    15 C      -7.312493    -5.072159     1.644756 C          1 UNL1 0.000
    16 C      -6.665103    -4.698300     2.841038 C          1 UNL1 0.000
    17 C      -7.085436    -5.172275     4.089444 C          1 UNL1 0.000
    18 C      -8.176074    -6.027554     4.178143 C          1 UNL1 0.000
    19 C      -8.860056    -6.386075     3.021862 C          1 UNL1 0.000
    20 C      -8.443430    -5.899777     1.775498 C          1 UNL1 0.000
    21 C      -7.106079    -5.289115    -0.894933 C          1 UNL1 0.000
    22 C      -7.213513    -6.691481    -0.947254 C          1 UNL1 0.000
    23 C      -7.496175    -7.362605    -2.143771 C          1 UNL1 0.000
    24 C      -7.642123    -6.649221    -3.328492 C          1 UNL1 0.000
    25 C      -7.485729    -5.268888    -3.319856 C          1 UNL1 0.000
    26 C      -7.213650    -4.601170    -2.120403 C          1 UNL1 0.000
    27 C      -2.611161     0.395441     0.542094 C          1 UNL1 0.000
    28 C      -1.815754     0.137463    -0.601933 C          1 UNL1 0.000
    29 C      -0.402036     0.168022    -0.594875 C          1 UNL1 0.000
    30 C       0.366806     0.466268     0.553368 C          1 UNL1 0.000
    31 C      -0.374237     0.693980     1.749290 C          1 UNL1 0.000
    32 C      -1.885248     0.656846     1.744757 C          1 UNL1 0.000
    33 N       0.131935     0.957940     2.968888 N          1 UNL1 0.000
    34 S      -1.152154     1.098500     4.005935 S          1 UNL1 0.000
    35 N      -2.414141     0.878288     2.961523 N          1 UNL1 0.000
    36 H      -6.339702     5.248769     0.825439 H          1 UNL1 0.000
    37 H      -7.428002     3.279205     1.870049 H          1 UNL1 0.000
    38 H      -6.358652     1.074285     1.786499 H          1 UNL1 0.000
    39 H      -3.132569     2.770933    -0.533613 H          1 UNL1 0.000
    40 H      -4.165236     4.978559    -0.338732 H          1 UNL1 0.000
    41 H      -6.679926    -0.035188    -0.246883 H          1 UNL1 0.000
    42 H      -7.885958    -2.149393    -0.143128 H          1 UNL1 0.000
    43 H      -4.224281    -4.223881     0.717325 H          1 UNL1 0.000
    44 H      -3.037739    -2.107930     0.836652 H          1 UNL1 0.000
    45 H      -5.806123    -4.034787     2.832649 H          1 UNL1 0.000
    46 H      -6.554237    -4.868671     4.988070 H          1 UNL1 0.000
    47 H      -8.499030    -6.401684     5.145799 H          1 UNL1 0.000
    48 H      -9.726294    -7.039429     3.085100 H          1 UNL1 0.000
    49 H      -9.036303    -6.168374     0.905329 H          1 UNL1 0.000
    50 H      -7.065148    -7.289936    -0.051995 H          1 UNL1 0.000
    51 H      -7.596950    -8.444768    -2.146182 H          1 UNL1 0.000
    52 H      -7.864380    -7.167301    -4.257359 H          1 UNL1 0.000
    53 H      -7.578316    -4.702554    -4.243031 H          1 UNL1 0.000
    54 H      -7.106412    -3.522496    -2.170029 H          1 UNL1 0.000
    55 H      -2.322620    -0.075516    -1.544708 H          1 UNL1 0.000
    56 H       0.120070    -0.034963    -1.532178 H          1 UNL1 0.000
    57 C       1.822009     0.535888     0.540565 C          1 UNL1 0.000
    58 N       2.460339    -0.580896     0.103746 N          1 UNL1 0.000
    59 C       3.818178    -0.573342     0.110607 C          1 UNL1 0.000
    60 C       4.567383     0.523329     0.505483 C          1 UNL1 0.000
    61 C       3.908548     1.681774     0.913563 C          1 UNL1 0.000
    62 C       2.514562     1.683945     0.932984 C          1 UNL1 0.000
    63 N       6.019614     0.452922     0.493286 N          1 UNL1 0.000
    64 O       6.642967     1.372639     1.042327 O          1 UNL1 0.000
    65 O       6.544651    -0.518361    -0.066968 O          1 UNL1 0.000
    66 H       4.274277    -1.505760    -0.213168 H          1 UNL1 0.000
    67 H       4.452476     2.571452     1.221303 H          1 UNL1 0.000
    68 H       1.977696     2.571642     1.257151 H          1 UNL1 0.000
@<TRIPOS>BOND
     1      1      2   2
     2      2      3   1
     3      3      4   2
     4      4      5   1
     5      5      6   2
     6      6      1   1
     7      4      7   1
     8      7      8   1
     9      8      9   2
    10      9     10   1
    11     10     11   2
    12     11     12   1
    13     12     13   2
    14     13      8   1
    15     25     26   2
    16     24     25   1
    17     23     24   2
    18     22     23   1
    19     21     22   2
    20     21     26   1
    21     19     20   2
    22     18     19   1
    23     17     18   2
    24     16     17   1
    25     15     16   2
    26     15     20   1
    27     14     15   1
    28     14     21   1
    29     11     14   1
    30     27     28   2
    31     28     29   1
    32     29     30   2
    33     30     31   1
    34     31     32   1
    35     32     27   1
    36     31     33   2
    37     33     34   1
    38     34     35   1
    39     35     32   2
    40      7     27   1
    41      1     36   1
    42      2     37   1
    43      3     38   1
    44      5     39   1
    45      6     40   1
    46      9     41   1
    47     10     42   1
    48     12     43   1
    49     13     44   1
    50     16     45   1
    51     17     46   1
    52     18     47   1
    53     19     48   1
    54     20     49   1
    55     22     50   1
    56     23     51   1
    57     24     52   1
    58     25     53   1
    59     26     54   1
    60     28     55   1
    61     29     56   1
    62     57     58   2
    63     58     59   1
    64     59     60   2
    65     60     61   1
    66     61     62   2
    67     62     57   1
    68     63     64   2
    69     63     65   1
    70     60     63   1
    71     59     66   1
    72     61     67   1
    73     62     68   1
    74     30     57   1
