# Produced with molli package
@<TRIPOS>MOLECULE
J_8_O
66 72 0 0 0
SMALL
USER_CHARGES

@<TRIPOS>ATOM
     1 C      -5.896899     4.269156     0.779585 C          1 UNL1 0.000
     2 C      -6.450983     3.171702     1.432725 C          1 UNL1 0.000
     3 C      -5.832254     1.918449     1.354865 C          1 UNL1 0.000
     4 C      -4.669929     1.726376     0.590853 C          1 UNL1 0.000
     5 C      -4.115825     2.860167    -0.039367 C          1 UNL1 0.000
     6 C      -4.720602     4.117111     0.054057 C          1 UNL1 0.000
     7 N      -4.025424     0.437374     0.465930 N          1 UNL1 0.000
     8 C      -4.733388    -0.824730     0.395611 C          1 UNL1 0.000
     9 C      -6.104263    -0.902002     0.092422 C          1 UNL1 0.000
    10 C      -6.794907    -2.121572     0.112559 C          1 UNL1 0.000
    11 C      -6.115857    -3.321980     0.343155 C          1 UNL1 0.000
    12 C      -4.736085    -3.277140     0.555947 C          1 UNL1 0.000
    13 C      -4.065298    -2.049149     0.609962 C          1 UNL1 0.000
    14 N      -6.820300    -4.573639     0.365244 N          1 UNL1 0.000
    15 C      -7.271828    -5.088988     1.644046 C          1 UNL1 0.000
    16 C      -6.577383    -4.816889     2.839344 C          1 UNL1 0.000
    17 C      -6.999731    -5.334789     4.069193 C          1 UNL1 0.000
    18 C      -8.139647    -6.126807     4.137836 C          1 UNL1 0.000
    19 C      -8.868461    -6.381798     2.981077 C          1 UNL1 0.000
    20 C      -8.446410    -5.857378     1.753273 C          1 UNL1 0.000
    21 C      -7.051054    -5.265709    -0.887556 C          1 UNL1 0.000
    22 C      -7.150198    -6.668926    -0.945706 C          1 UNL1 0.000
    23 C      -7.406563    -7.337260    -2.148821 C          1 UNL1 0.000
    24 C      -7.541428    -6.619038    -3.331925 C          1 UNL1 0.000
    25 C      -7.402527    -5.236327    -3.314281 C          1 UNL1 0.000
    26 C      -7.152473    -4.570963    -2.108756 C          1 UNL1 0.000
    27 C      -2.591926     0.430589     0.552081 C          1 UNL1 0.000
    28 C      -1.807240     0.189179    -0.602553 C          1 UNL1 0.000
    29 C      -0.393849     0.204312    -0.603604 C          1 UNL1 0.000
    30 C       0.386647     0.467168     0.545484 C          1 UNL1 0.000
    31 C      -0.341924     0.686358     1.750148 C          1 UNL1 0.000
    32 C      -1.855224     0.665681     1.753761 C          1 UNL1 0.000
    33 N       0.172778     0.925218     2.970703 N          1 UNL1 0.000
    34 S      -1.103318     1.057068     4.017742 S          1 UNL1 0.000
    35 N      -2.375088     0.869085     2.978366 N          1 UNL1 0.000
    36 H      -6.374859     5.242930     0.845201 H          1 UNL1 0.000
    37 H      -7.361919     3.289206     2.013852 H          1 UNL1 0.000
    38 H      -6.262764     1.095153     1.919020 H          1 UNL1 0.000
    39 H      -3.208303     2.774769    -0.630737 H          1 UNL1 0.000
    40 H      -4.272182     4.972454    -0.444400 H          1 UNL1 0.000
    41 H      -6.671900    -0.012281    -0.163851 H          1 UNL1 0.000
    42 H      -7.865861    -2.134962    -0.074615 H          1 UNL1 0.000
    43 H      -4.183478    -4.198844     0.721251 H          1 UNL1 0.000
    44 H      -3.003946    -2.079057     0.840574 H          1 UNL1 0.000
    45 H      -5.677786    -4.209692     2.840341 H          1 UNL1 0.000
    46 H      -6.430896    -5.117108     4.969686 H          1 UNL1 0.000
    47 H      -8.464048    -6.534259     5.091492 H          1 UNL1 0.000
    48 H      -9.771017    -6.985168     3.029933 H          1 UNL1 0.000
    49 H      -9.062454    -6.047663     0.878009 H          1 UNL1 0.000
    50 H      -7.013357    -7.268559    -0.049234 H          1 UNL1 0.000
    51 H      -7.494855    -8.420411    -2.157322 H          1 UNL1 0.000
    52 H      -7.742695    -7.135321    -4.266531 H          1 UNL1 0.000
    53 H      -7.490504    -4.666965    -4.236010 H          1 UNL1 0.000
    54 H      -7.057203    -3.490589    -2.148787 H          1 UNL1 0.000
    55 H      -2.321625    -0.003866    -1.545119 H          1 UNL1 0.000
    56 H       0.122426     0.012160    -1.546496 H          1 UNL1 0.000
    57 C       1.842041     0.504775     0.518343 C          1 UNL1 0.000
    58 N       2.448079    -0.642404     0.122618 N          1 UNL1 0.000
    59 C       3.799208    -0.650135     0.091724 C          1 UNL1 0.000
    60 C       4.585674     0.447250     0.398719 C          1 UNL1 0.000
    61 C       3.950666     1.625391     0.769044 C          1 UNL1 0.000
    62 C       2.560669     1.656165     0.836691 C          1 UNL1 0.000
    63 H       4.248758    -1.596474    -0.195297 H          1 UNL1 0.000
    64 H       5.666857     0.384826     0.351543 H          1 UNL1 0.000
    65 H       4.529884     2.512019     1.009826 H          1 UNL1 0.000
    66 H       2.048966     2.567347     1.130714 H          1 UNL1 0.000
@<TRIPOS>BOND
     1      1      2   2
     2      2      3   1
     3      3      4   2
     4      4      5   1
     5      5      6   2
     6      6      1   1
     7      4      7   1
     8      7      8   1
     9      8      9   2
    10      9     10   1
    11     10     11   2
    12     11     12   1
    13     12     13   2
    14     13      8   1
    15     25     26   2
    16     24     25   1
    17     23     24   2
    18     22     23   1
    19     21     22   2
    20     21     26   1
    21     19     20   2
    22     18     19   1
    23     17     18   2
    24     16     17   1
    25     15     16   2
    26     15     20   1
    27     14     15   1
    28     14     21   1
    29     11     14   1
    30     27     28   2
    31     28     29   1
    32     29     30   2
    33     30     31   1
    34     31     32   1
    35     32     27   1
    36     31     33   2
    37     33     34   1
    38     34     35   1
    39     35     32   2
    40      7     27   1
    41      1     36   1
    42      2     37   1
    43      3     38   1
    44      5     39   1
    45      6     40   1
    46      9     41   1
    47     10     42   1
    48     12     43   1
    49     13     44   1
    50     16     45   1
    51     17     46   1
    52     18     47   1
    53     19     48   1
    54     20     49   1
    55     22     50   1
    56     23     51   1
    57     24     52   1
    58     25     53   1
    59     26     54   1
    60     28     55   1
    61     29     56   1
    62     57     58   2
    63     58     59   1
    64     59     60   2
    65     60     61   1
    66     61     62   2
    67     62     57   1
    68     59     63   1
    69     60     64   1
    70     61     65   1
    71     62     66   1
    72     30     57   1
