# Produced with molli package
@<TRIPOS>MOLECULE
J_8_Q
65 71 0 0 0
SMALL
USER_CHARGES

@<TRIPOS>ATOM
     1 C      -5.972960     4.224273     0.786065 C          1 UNL1 0.000
     2 C      -6.560089     3.115519     1.388483 C          1 UNL1 0.000
     3 C      -5.932649     1.864717     1.330259 C          1 UNL1 0.000
     4 C      -4.730521     1.682659     0.628115 C          1 UNL1 0.000
     5 C      -4.145757     2.830086     0.049589 C          1 UNL1 0.000
     6 C      -4.755775     4.085596     0.130035 C          1 UNL1 0.000
     7 N      -4.075329     0.396088     0.513811 N          1 UNL1 0.000
     8 C      -4.764726    -0.877276     0.438639 C          1 UNL1 0.000
     9 C      -6.132641    -0.979612     0.132082 C          1 UNL1 0.000
    10 C      -6.801736    -2.210886     0.153901 C          1 UNL1 0.000
    11 C      -6.100762    -3.399646     0.380148 C          1 UNL1 0.000
    12 C      -4.722314    -3.332055     0.592762 C          1 UNL1 0.000
    13 C      -4.075612    -2.091690     0.651897 C          1 UNL1 0.000
    14 N      -6.783885    -4.664966     0.397476 N          1 UNL1 0.000
    15 C      -7.226700    -5.180270     1.682707 C          1 UNL1 0.000
    16 C      -6.576978    -4.821408     2.883024 C          1 UNL1 0.000
    17 C      -6.986627    -5.319417     4.125640 C          1 UNL1 0.000
    18 C      -8.067430    -6.187572     4.204968 C          1 UNL1 0.000
    19 C      -8.753346    -6.532890     3.045793 C          1 UNL1 0.000
    20 C      -8.349328    -6.019523     1.805686 C          1 UNL1 0.000
    21 C      -7.022481    -5.334951    -0.868677 C          1 UNL1 0.000
    22 C      -7.172053    -6.731027    -0.958947 C          1 UNL1 0.000
    23 C      -7.451268    -7.364110    -2.177634 C          1 UNL1 0.000
    24 C      -7.545883    -6.620084    -3.348538 C          1 UNL1 0.000
    25 C      -7.340867    -5.247521    -3.303958 C          1 UNL1 0.000
    26 C      -7.076146    -4.617963    -2.082473 C          1 UNL1 0.000
    27 C      -2.640913     0.401737     0.593872 C          1 UNL1 0.000
    28 C      -1.858498     0.151793    -0.561193 C          1 UNL1 0.000
    29 C      -0.444989     0.175484    -0.569867 C          1 UNL1 0.000
    30 C       0.335357     0.460062     0.573645 C          1 UNL1 0.000
    31 C      -0.390195     0.694816     1.775020 C          1 UNL1 0.000
    32 C      -1.901475     0.661889     1.789340 C          1 UNL1 0.000
    33 N       0.132244     0.961580     2.987083 N          1 UNL1 0.000
    34 S      -1.138409     1.100552     4.040807 S          1 UNL1 0.000
    35 N      -2.414854     0.880349     3.012326 N          1 UNL1 0.000
    36 H      -6.456543     5.196035     0.838620 H          1 UNL1 0.000
    37 H      -7.504327     3.222176     1.916247 H          1 UNL1 0.000
    38 H      -6.392745     1.037398     1.863773 H          1 UNL1 0.000
    39 H      -3.205578     2.760144    -0.490380 H          1 UNL1 0.000
    40 H      -4.278871     4.949803    -0.324866 H          1 UNL1 0.000
    41 H      -6.716863    -0.102997    -0.130302 H          1 UNL1 0.000
    42 H      -7.872466    -2.244272    -0.032826 H          1 UNL1 0.000
    43 H      -4.153916    -4.244501     0.756002 H          1 UNL1 0.000
    44 H      -3.014420    -2.104649     0.884725 H          1 UNL1 0.000
    45 H      -5.724579    -4.149270     2.882127 H          1 UNL1 0.000
    46 H      -6.454928    -5.024028     5.026727 H          1 UNL1 0.000
    47 H      -8.381793    -6.581246     5.167694 H          1 UNL1 0.000
    48 H      -9.612405    -7.196303     3.102288 H          1 UNL1 0.000
    49 H      -8.947554    -6.275912     0.935746 H          1 UNL1 0.000
    50 H      -7.059436    -7.358034    -0.078522 H          1 UNL1 0.000
    51 H      -7.588672    -8.441832    -2.208053 H          1 UNL1 0.000
    52 H      -7.764084    -7.108675    -4.294124 H          1 UNL1 0.000
    53 H      -7.388812    -4.656929    -4.215245 H          1 UNL1 0.000
    54 H      -6.926880    -3.543256    -2.107819 H          1 UNL1 0.000
    55 H      -2.376671    -0.056920    -1.499004 H          1 UNL1 0.000
    56 H       0.066864    -0.027617    -1.512533 H          1 UNL1 0.000
    57 C       1.787587     0.501585     0.553565 C          1 UNL1 0.000
    58 N       2.415538    -0.661185     0.240869 N          1 UNL1 0.000
    59 C       3.768666    -0.617933     0.246006 C          1 UNL1 0.000
    60 C       4.477529     0.542566     0.507199 C          1 UNL1 0.000
    61 N       3.867806     1.714941     0.784843 N          1 UNL1 0.000
    62 C       2.512689     1.663774     0.814317 C          1 UNL1 0.000
    63 H       4.274091    -1.553543     0.036185 H          1 UNL1 0.000
    64 H       5.561273     0.559281     0.501917 H          1 UNL1 0.000
    65 H       2.018488     2.601514     1.046483 H          1 UNL1 0.000
@<TRIPOS>BOND
     1      1      2   2
     2      2      3   1
     3      3      4   2
     4      4      5   1
     5      5      6   2
     6      6      1   1
     7      4      7   1
     8      7      8   1
     9      8      9   2
    10      9     10   1
    11     10     11   2
    12     11     12   1
    13     12     13   2
    14     13      8   1
    15     25     26   2
    16     24     25   1
    17     23     24   2
    18     22     23   1
    19     21     22   2
    20     21     26   1
    21     19     20   2
    22     18     19   1
    23     17     18   2
    24     16     17   1
    25     15     16   2
    26     15     20   1
    27     14     15   1
    28     14     21   1
    29     11     14   1
    30     27     28   2
    31     28     29   1
    32     29     30   2
    33     30     31   1
    34     31     32   1
    35     32     27   1
    36     31     33   2
    37     33     34   1
    38     34     35   1
    39     35     32   2
    40      7     27   1
    41      1     36   1
    42      2     37   1
    43      3     38   1
    44      5     39   1
    45      6     40   1
    46      9     41   1
    47     10     42   1
    48     12     43   1
    49     13     44   1
    50     16     45   1
    51     17     46   1
    52     18     47   1
    53     19     48   1
    54     20     49   1
    55     22     50   1
    56     23     51   1
    57     24     52   1
    58     25     53   1
    59     26     54   1
    60     28     55   1
    61     29     56   1
    62     57     58   2
    63     58     59   1
    64     59     60   2
    65     60     61   1
    66     61     62   2
    67     62     57   1
    68     59     63   1
    69     60     64   1
    70     62     65   1
    71     30     57   1
