# Produced with molli package
@<TRIPOS>MOLECULE
J_8_N
64 70 0 0 0
SMALL
USER_CHARGES

@<TRIPOS>ATOM
     1 C      -5.908760     4.240001     0.093404 C          1 UNL1 0.000
     2 C      -6.414101     3.145520    -0.602961 C          1 UNL1 0.000
     3 C      -5.795254     1.894733    -0.495165 C          1 UNL1 0.000
     4 C      -4.681671     1.703361     0.339579 C          1 UNL1 0.000
     5 C      -4.177978     2.832863     1.016362 C          1 UNL1 0.000
     6 C      -4.782691     4.087045     0.894534 C          1 UNL1 0.000
     7 N      -4.041601     0.415603     0.486918 N          1 UNL1 0.000
     8 C      -4.756205    -0.843059     0.550118 C          1 UNL1 0.000
     9 C      -6.139142    -0.910667     0.796934 C          1 UNL1 0.000
    10 C      -6.831774    -2.128661     0.777979 C          1 UNL1 0.000
    11 C      -6.146709    -3.333853     0.596345 C          1 UNL1 0.000
    12 C      -4.760463    -3.297405     0.426550 C          1 UNL1 0.000
    13 C      -4.083678    -2.072051     0.379305 C          1 UNL1 0.000
    14 N      -6.852564    -4.584952     0.587626 N          1 UNL1 0.000
    15 C      -7.062479    -5.269175     1.848016 C          1 UNL1 0.000
    16 C      -7.132313    -4.563208     3.065573 C          1 UNL1 0.000
    17 C      -7.361757    -5.216013     4.281735 C          1 UNL1 0.000
    18 C      -7.512929    -6.597106     4.313607 C          1 UNL1 0.000
    19 C      -7.409757    -7.326194     3.133686 C          1 UNL1 0.000
    20 C      -7.172211    -6.670510     1.919487 C          1 UNL1 0.000
    21 C      -7.336123    -5.091793    -0.682073 C          1 UNL1 0.000
    22 C      -8.501801    -5.875364    -0.770541 C          1 UNL1 0.000
    23 C      -8.952094    -6.384284    -1.994982 C          1 UNL1 0.000
    24 C      -8.262649    -6.096662    -3.168201 C          1 UNL1 0.000
    25 C      -7.131835    -5.290228    -3.118797 C          1 UNL1 0.000
    26 C      -6.679344    -4.790608    -1.892236 C          1 UNL1 0.000
    27 C      -2.606657     0.408524     0.573207 C          1 UNL1 0.000
    28 C      -1.833259     0.640652    -0.594949 C          1 UNL1 0.000
    29 C      -0.420804     0.656995    -0.615726 C          1 UNL1 0.000
    30 C       0.354282     0.449650     0.539976 C          1 UNL1 0.000
    31 C      -0.344838     0.222452     1.757599 C          1 UNL1 0.000
    32 C      -1.858744     0.196971     1.774399 C          1 UNL1 0.000
    33 N       0.188195     0.024525     2.978604 N          1 UNL1 0.000
    34 S      -1.075931    -0.164914     4.031573 S          1 UNL1 0.000
    35 N      -2.363226    -0.011495     3.001851 N          1 UNL1 0.000
    36 H      -6.389566     5.211109     0.010099 H          1 UNL1 0.000
    37 H      -7.291009     3.262896    -1.234440 H          1 UNL1 0.000
    38 H      -6.193235     1.070307    -1.081228 H          1 UNL1 0.000
    39 H      -3.318629     2.744832     1.676120 H          1 UNL1 0.000
    40 H      -4.377066     4.937721     1.436094 H          1 UNL1 0.000
    41 H      -6.711906    -0.015201     1.019886 H          1 UNL1 0.000
    42 H      -7.907446    -2.138281     0.935833 H          1 UNL1 0.000
    43 H      -4.207091    -4.224582     0.299749 H          1 UNL1 0.000
    44 H      -3.013428    -2.106424     0.197791 H          1 UNL1 0.000
    45 H      -7.026183    -3.482904     3.093485 H          1 UNL1 0.000
    46 H      -7.423625    -4.637908     5.200193 H          1 UNL1 0.000
    47 H      -7.698744    -7.103621     5.256757 H          1 UNL1 0.000
    48 H      -7.508067    -8.408351     3.153848 H          1 UNL1 0.000
    49 H      -7.058888    -7.278809     1.025768 H          1 UNL1 0.000
    50 H      -9.090847    -6.089528     0.117576 H          1 UNL1 0.000
    51 H      -9.846748    -7.000531    -2.028170 H          1 UNL1 0.000
    52 H      -8.610906    -6.490672    -4.119143 H          1 UNL1 0.000
    53 H      -6.594266    -5.047647    -4.031888 H          1 UNL1 0.000
    54 H      -5.787292    -4.171969    -1.904960 H          1 UNL1 0.000
    55 H      -2.362191     0.805003    -1.535991 H          1 UNL1 0.000
    56 H       0.080202     0.834057    -1.567788 H          1 UNL1 0.000
    57 C       1.799267     0.500839     0.504881 C          1 UNL1 0.000
    58 C       2.564574    -0.645823     0.576474 C          1 UNL1 0.000
    59 S       4.242335    -0.310984     0.499095 S          1 UNL1 0.000
    60 C       3.957040     1.370659     0.371510 C          1 UNL1 0.000
    61 C       2.612128     1.669230     0.376917 C          1 UNL1 0.000
    62 H       2.228542    -1.669456     0.674107 H          1 UNL1 0.000
    63 H       4.788113     2.058703     0.299936 H          1 UNL1 0.000
    64 H       2.230806     2.680953     0.308134 H          1 UNL1 0.000
@<TRIPOS>BOND
     1      1      2   2
     2      2      3   1
     3      3      4   2
     4      4      5   1
     5      5      6   2
     6      6      1   1
     7      4      7   1
     8      7      8   1
     9      8      9   2
    10      9     10   1
    11     10     11   2
    12     11     12   1
    13     12     13   2
    14     13      8   1
    15     25     26   2
    16     24     25   1
    17     23     24   2
    18     22     23   1
    19     21     22   2
    20     21     26   1
    21     19     20   2
    22     18     19   1
    23     17     18   2
    24     16     17   1
    25     15     16   2
    26     15     20   1
    27     14     15   1
    28     14     21   1
    29     11     14   1
    30     27     28   2
    31     28     29   1
    32     29     30   2
    33     30     31   1
    34     31     32   1
    35     32     27   1
    36     31     33   2
    37     33     34   1
    38     34     35   1
    39     35     32   2
    40      7     27   1
    41      1     36   1
    42      2     37   1
    43      3     38   1
    44      5     39   1
    45      6     40   1
    46      9     41   1
    47     10     42   1
    48     12     43   1
    49     13     44   1
    50     16     45   1
    51     17     46   1
    52     18     47   1
    53     19     48   1
    54     20     49   1
    55     22     50   1
    56     23     51   1
    57     24     52   1
    58     25     53   1
    59     26     54   1
    60     28     55   1
    61     29     56   1
    62     57     58   2
    63     58     59   1
    64     59     60   1
    65     60     61   2
    66     61     57   1
    67     58     62   1
    68     60     63   1
    69     61     64   1
    70     30     57   1
