# Produced with molli package
@<TRIPOS>MOLECULE
J_8_P
71 77 0 0 0
SMALL
USER_CHARGES

@<TRIPOS>ATOM
     1 C      -5.951009     4.243151     0.199669 C          1 UNL1 0.000
     2 C      -6.472218     3.153191    -0.491968 C          1 UNL1 0.000
     3 C      -5.859156     1.898021    -0.396430 C          1 UNL1 0.000
     4 C      -4.735092     1.696572     0.421518 C          1 UNL1 0.000
     5 C      -4.216950     2.822503     1.094659 C          1 UNL1 0.000
     6 C      -4.815339     4.081041     0.984644 C          1 UNL1 0.000
     7 N      -4.096238     0.405889     0.552161 N          1 UNL1 0.000
     8 C      -4.805652    -0.856816     0.593392 C          1 UNL1 0.000
     9 C      -6.187485    -0.939151     0.839472 C          1 UNL1 0.000
    10 C      -6.869098    -2.164046     0.807276 C          1 UNL1 0.000
    11 C      -6.173783    -3.361469     0.610687 C          1 UNL1 0.000
    12 C      -4.788690    -3.310007     0.440245 C          1 UNL1 0.000
    13 C      -4.123605    -2.078543     0.406373 C          1 UNL1 0.000
    14 N      -6.865902    -4.619564     0.599602 N          1 UNL1 0.000
    15 C      -7.068692    -5.315296     1.854822 C          1 UNL1 0.000
    16 C      -7.110691    -4.624704     3.082110 C          1 UNL1 0.000
    17 C      -7.327008    -5.291643     4.293161 C          1 UNL1 0.000
    18 C      -7.492435    -6.671554     4.309628 C          1 UNL1 0.000
    19 C      -7.419621    -7.385785     3.118624 C          1 UNL1 0.000
    20 C      -7.197036    -6.716241     1.909463 C          1 UNL1 0.000
    21 C      -7.334062    -5.135120    -0.670509 C          1 UNL1 0.000
    22 C      -8.533479    -5.864738    -0.769008 C          1 UNL1 0.000
    23 C      -8.972370    -6.388553    -1.990653 C          1 UNL1 0.000
    24 C      -8.233095    -6.173438    -3.149347 C          1 UNL1 0.000
    25 C      -7.064414    -5.422836    -3.089131 C          1 UNL1 0.000
    26 C      -6.625700    -4.904281    -1.865708 C          1 UNL1 0.000
    27 C      -2.662314     0.396233     0.651074 C          1 UNL1 0.000
    28 C      -1.877252     0.616025    -0.509422 C          1 UNL1 0.000
    29 C      -0.464081     0.625751    -0.512653 C          1 UNL1 0.000
    30 C       0.313882     0.432974     0.649014 C          1 UNL1 0.000
    31 C      -0.412112     0.210497     1.856061 C          1 UNL1 0.000
    32 C      -1.925373     0.186356     1.856784 C          1 UNL1 0.000
    33 N       0.107409     0.014591     3.081705 N          1 UNL1 0.000
    34 S      -1.166263    -0.175581     4.122356 S          1 UNL1 0.000
    35 N      -2.442860    -0.020362     3.080625 N          1 UNL1 0.000
    36 H      -6.426256     5.217647     0.124619 H          1 UNL1 0.000
    37 H      -7.356490     3.277806    -1.111666 H          1 UNL1 0.000
    38 H      -6.269417     1.079499    -0.982053 H          1 UNL1 0.000
    39 H      -3.348490     2.729885     1.741670 H          1 UNL1 0.000
    40 H      -4.396094     4.927775     1.522067 H          1 UNL1 0.000
    41 H      -6.767148    -0.051677     1.076037 H          1 UNL1 0.000
    42 H      -7.943980    -2.185338     0.969522 H          1 UNL1 0.000
    43 H      -4.225570    -4.230248     0.306843 H          1 UNL1 0.000
    44 H      -3.052969    -2.102447     0.225377 H          1 UNL1 0.000
    45 H      -6.990392    -3.546194     3.122489 H          1 UNL1 0.000
    46 H      -7.366288    -4.725575     5.220316 H          1 UNL1 0.000
    47 H      -7.665866    -7.188935     5.249205 H          1 UNL1 0.000
    48 H      -7.529261    -8.466998     3.125731 H          1 UNL1 0.000
    49 H      -7.108180    -7.314372     1.006169 H          1 UNL1 0.000
    50 H      -9.152673    -6.023769     0.110470 H          1 UNL1 0.000
    51 H      -9.895277    -6.960874    -2.033474 H          1 UNL1 0.000
    52 H      -8.570839    -6.581652    -4.098121 H          1 UNL1 0.000
    53 H      -6.486280    -5.240199    -3.991331 H          1 UNL1 0.000
    54 H      -5.702487    -4.333491    -1.866115 H          1 UNL1 0.000
    55 H      -2.394741     0.777642    -1.456777 H          1 UNL1 0.000
    56 H       0.045083     0.799461    -1.462148 H          1 UNL1 0.000
    57 C       1.770658     0.493976     0.637508 C          1 UNL1 0.000
    58 C       2.543108    -0.662244     0.447839 C          1 UNL1 0.000
    59 C       3.939928    -0.593482     0.435968 C          1 UNL1 0.000
    60 C       4.573011     0.636844     0.601584 C          1 UNL1 0.000
    61 C       3.822910     1.789083     0.815807 C          1 UNL1 0.000
    62 C       2.428658     1.720051     0.821162 C          1 UNL1 0.000
    63 O       5.934742     0.760119     0.639629 O          1 UNL1 0.000
    64 C       6.535177     0.357812    -0.589931 C          1 UNL1 0.000
    65 H       2.059582    -1.629401     0.326848 H          1 UNL1 0.000
    66 H       4.519567    -1.504491     0.324107 H          1 UNL1 0.000
    67 H       4.321891     2.740216     0.977046 H          1 UNL1 0.000
    68 H       1.855372     2.629916     0.985560 H          1 UNL1 0.000
    69 H       7.582756     0.673173    -0.567285 H          1 UNL1 0.000
    70 H       6.055344     0.845322    -1.446373 H          1 UNL1 0.000
    71 H       6.514381    -0.730360    -0.704327 H          1 UNL1 0.000
@<TRIPOS>BOND
     1      1      2   2
     2      2      3   1
     3      3      4   2
     4      4      5   1
     5      5      6   2
     6      6      1   1
     7      4      7   1
     8      7      8   1
     9      8      9   2
    10      9     10   1
    11     10     11   2
    12     11     12   1
    13     12     13   2
    14     13      8   1
    15     25     26   2
    16     24     25   1
    17     23     24   2
    18     22     23   1
    19     21     22   2
    20     21     26   1
    21     19     20   2
    22     18     19   1
    23     17     18   2
    24     16     17   1
    25     15     16   2
    26     15     20   1
    27     14     15   1
    28     14     21   1
    29     11     14   1
    30     27     28   2
    31     28     29   1
    32     29     30   2
    33     30     31   1
    34     31     32   1
    35     32     27   1
    36     31     33   2
    37     33     34   1
    38     34     35   1
    39     35     32   2
    40      7     27   1
    41      1     36   1
    42      2     37   1
    43      3     38   1
    44      5     39   1
    45      6     40   1
    46      9     41   1
    47     10     42   1
    48     12     43   1
    49     13     44   1
    50     16     45   1
    51     17     46   1
    52     18     47   1
    53     19     48   1
    54     20     49   1
    55     22     50   1
    56     23     51   1
    57     24     52   1
    58     25     53   1
    59     26     54   1
    60     28     55   1
    61     29     56   1
    62     57     58   2
    63     58     59   1
    64     59     60   2
    65     60     61   1
    66     61     62   2
    67     62     57   1
    68     63     64   1
    69     60     63   1
    70     58     65   1
    71     59     66   1
    72     61     67   1
    73     62     68   1
    74     64     69   1
    75     64     70   1
    76     64     71   1
    77     30     57   1
