# Produced with molli package
@<TRIPOS>MOLECULE
J_8_T
70 76 0 0 0
SMALL
USER_CHARGES

@<TRIPOS>ATOM
     1 C      -5.793115     4.251650     0.168737 C          1 UNL1 0.000
     2 C      -6.446349     3.139024    -0.351030 C          1 UNL1 0.000
     3 C      -5.862412     1.867203    -0.262007 C          1 UNL1 0.000
     4 C      -4.639995     1.663867     0.399052 C          1 UNL1 0.000
     5 C      -3.991482     2.819510     0.891227 C          1 UNL1 0.000
     6 C      -4.554079     4.094803     0.774092 C          1 UNL1 0.000
     7 N      -4.026889     0.355741     0.541505 N          1 UNL1 0.000
     8 C      -4.740762    -0.906951     0.604165 C          1 UNL1 0.000
     9 C      -6.115140    -0.995610     0.881372 C          1 UNL1 0.000
    10 C      -6.799149    -2.220706     0.845472 C          1 UNL1 0.000
    11 C      -6.110096    -3.418397     0.631729 C          1 UNL1 0.000
    12 C      -4.727135    -3.365949     0.449011 C          1 UNL1 0.000
    13 C      -4.063071    -2.132561     0.411487 C          1 UNL1 0.000
    14 N      -6.804345    -4.676201     0.604953 N          1 UNL1 0.000
    15 C      -7.012052    -5.376062     1.857118 C          1 UNL1 0.000
    16 C      -7.159679    -4.680475     3.072943 C          1 UNL1 0.000
    17 C      -7.396211    -5.350420     4.278251 C          1 UNL1 0.000
    18 C      -7.474466    -6.737839     4.300957 C          1 UNL1 0.000
    19 C      -7.290178    -7.455195     3.123641 C          1 UNL1 0.000
    20 C      -7.046801    -6.781911     1.920331 C          1 UNL1 0.000
    21 C      -7.267119    -5.186189    -0.672499 C          1 UNL1 0.000
    22 C      -8.391814    -6.027674    -0.769326 C          1 UNL1 0.000
    23 C      -8.824536    -6.538095    -1.999628 C          1 UNL1 0.000
    24 C      -8.159897    -6.194717    -3.171722 C          1 UNL1 0.000
    25 C      -7.071406    -5.332548    -3.114434 C          1 UNL1 0.000
    26 C      -6.635715    -4.831671    -1.881732 C          1 UNL1 0.000
    27 C      -2.591223     0.321041     0.629472 C          1 UNL1 0.000
    28 C      -1.813091     0.389758    -0.553047 C          1 UNL1 0.000
    29 C      -0.400624     0.391365    -0.563862 C          1 UNL1 0.000
    30 C       0.382924     0.341470     0.610490 C          1 UNL1 0.000
    31 C      -0.336607     0.273702     1.838053 C          1 UNL1 0.000
    32 C      -1.849928     0.255448     1.851005 C          1 UNL1 0.000
    33 N       0.187999     0.234429     3.078807 N          1 UNL1 0.000
    34 S      -1.081750     0.183839     4.139564 S          1 UNL1 0.000
    35 N      -2.362593     0.206401     3.090966 N          1 UNL1 0.000
    36 H      -6.242902     5.237996     0.094709 H          1 UNL1 0.000
    37 H      -7.412028     3.257636    -0.835877 H          1 UNL1 0.000
    38 H      -6.382944     1.042464    -0.739449 H          1 UNL1 0.000
    39 H      -3.033268     2.750893     1.398344 H          1 UNL1 0.000
    40 H      -4.022509     4.957675     1.167114 H          1 UNL1 0.000
    41 H      -6.691426    -0.115379     1.148399 H          1 UNL1 0.000
    42 H      -7.872701    -2.241095     1.016982 H          1 UNL1 0.000
    43 H      -4.165285    -4.285278     0.303390 H          1 UNL1 0.000
    44 H      -2.994252    -2.160742     0.220106 H          1 UNL1 0.000
    45 H      -7.114104    -3.596492     3.107015 H          1 UNL1 0.000
    46 H      -7.522143    -4.780608     5.195325 H          1 UNL1 0.000
    47 H      -7.667195    -7.257571     5.235504 H          1 UNL1 0.000
    48 H      -7.331024    -8.541145     3.137675 H          1 UNL1 0.000
    49 H      -6.871391    -7.377656     1.027989 H          1 UNL1 0.000
    50 H      -8.964557    -6.288100     0.117033 H          1 UNL1 0.000
    51 H      -9.686872    -7.198597    -2.037679 H          1 UNL1 0.000
    52 H      -8.495388    -6.588273    -4.127432 H          1 UNL1 0.000
    53 H      -6.554340    -5.046044    -4.026685 H          1 UNL1 0.000
    54 H      -5.777613    -4.166757    -1.891225 H          1 UNL1 0.000
    55 H      -2.335748     0.439932    -1.510284 H          1 UNL1 0.000
    56 H       0.105443     0.441025    -1.529067 H          1 UNL1 0.000
    57 C       1.839764     0.386431     0.578930 C          1 UNL1 0.000
    58 C       2.598403    -0.790889     0.620418 C          1 UNL1 0.000
    59 C       3.995045    -0.743049     0.576080 C          1 UNL1 0.000
    60 C       4.659803     0.483989     0.483644 C          1 UNL1 0.000
    61 C       3.907725     1.662936     0.449720 C          1 UNL1 0.000
    62 C       2.512048     1.613565     0.492390 C          1 UNL1 0.000
    63 C       6.157820     0.550235     0.461283 C          1 UNL1 0.000
    64 H       2.104520    -1.757369     0.694786 H          1 UNL1 0.000
    65 H       4.557536    -1.672863     0.618313 H          1 UNL1 0.000
    66 H       4.404117     2.629091     0.394599 H          1 UNL1 0.000
    67 H       1.949589     2.544633     0.468355 H          1 UNL1 0.000
    68 H       6.529372     0.954481     1.408129 H          1 UNL1 0.000
    69 H       6.497761     1.188837    -0.360627 H          1 UNL1 0.000
    70 H       6.600020    -0.440459     0.313716 H          1 UNL1 0.000
@<TRIPOS>BOND
     1      1      2   2
     2      2      3   1
     3      3      4   2
     4      4      5   1
     5      5      6   2
     6      6      1   1
     7      4      7   1
     8      7      8   1
     9      8      9   2
    10      9     10   1
    11     10     11   2
    12     11     12   1
    13     12     13   2
    14     13      8   1
    15     25     26   2
    16     24     25   1
    17     23     24   2
    18     22     23   1
    19     21     22   2
    20     21     26   1
    21     19     20   2
    22     18     19   1
    23     17     18   2
    24     16     17   1
    25     15     16   2
    26     15     20   1
    27     14     15   1
    28     14     21   1
    29     11     14   1
    30     27     28   2
    31     28     29   1
    32     29     30   2
    33     30     31   1
    34     31     32   1
    35     32     27   1
    36     31     33   2
    37     33     34   1
    38     34     35   1
    39     35     32   2
    40      7     27   1
    41      1     36   1
    42      2     37   1
    43      3     38   1
    44      5     39   1
    45      6     40   1
    46      9     41   1
    47     10     42   1
    48     12     43   1
    49     13     44   1
    50     16     45   1
    51     17     46   1
    52     18     47   1
    53     19     48   1
    54     20     49   1
    55     22     50   1
    56     23     51   1
    57     24     52   1
    58     25     53   1
    59     26     54   1
    60     28     55   1
    61     29     56   1
    62     57     58   2
    63     58     59   1
    64     59     60   2
    65     60     61   1
    66     61     62   2
    67     62     57   1
    68     60     63   1
    69     58     64   1
    70     59     65   1
    71     61     66   1
    72     62     67   1
    73     63     68   1
    74     63     69   1
    75     63     70   1
    76     30     57   1
