# Produced with molli package
@<TRIPOS>MOLECULE
J_8_S
72 78 0 0 0
SMALL
USER_CHARGES

@<TRIPOS>ATOM
     1 C      -5.770453     4.248107     0.543942 C          1 UNL1 0.000
     2 C      -6.514334     3.136996     0.926336 C          1 UNL1 0.000
     3 C      -5.929787     1.862237     0.942674 C          1 UNL1 0.000
     4 C      -4.603372     1.654335     0.529083 C          1 UNL1 0.000
     5 C      -3.869219     2.809670     0.173784 C          1 UNL1 0.000
     6 C      -4.439822     4.087131     0.184484 C          1 UNL1 0.000
     7 N      -3.981272     0.341841     0.499417 N          1 UNL1 0.000
     8 C      -4.697150    -0.917953     0.465831 C          1 UNL1 0.000
     9 C      -5.963917    -1.050403    -0.127466 C          1 UNL1 0.000
    10 C      -6.659960    -2.268771    -0.111034 C          1 UNL1 0.000
    11 C      -6.092357    -3.412553     0.465481 C          1 UNL1 0.000
    12 C      -4.808114    -3.314956     1.007575 C          1 UNL1 0.000
    13 C      -4.125499    -2.091748     1.002786 C          1 UNL1 0.000
    14 N      -6.806812    -4.664939     0.490094 N          1 UNL1 0.000
    15 C      -7.106914    -5.260096     1.778995 C          1 UNL1 0.000
    16 C      -7.264669    -4.452304     2.925213 C          1 UNL1 0.000
    17 C      -7.582832    -4.999817     4.172672 C          1 UNL1 0.000
    18 C      -7.759350    -6.372140     4.304946 C          1 UNL1 0.000
    19 C      -7.586363    -7.197145     3.197593 C          1 UNL1 0.000
    20 C      -7.243704    -6.648525     1.954558 C          1 UNL1 0.000
    21 C      -7.225512    -5.240736    -0.773472 C          1 UNL1 0.000
    22 C      -8.357007    -6.066425    -0.889717 C          1 UNL1 0.000
    23 C      -8.735323    -6.616928    -2.120858 C          1 UNL1 0.000
    24 C      -8.012958    -6.322279    -3.273190 C          1 UNL1 0.000
    25 C      -6.907260    -5.484278    -3.195292 C          1 UNL1 0.000
    26 C      -6.514149    -4.960481    -1.960028 C          1 UNL1 0.000
    27 C      -2.547090     0.294957     0.583625 C          1 UNL1 0.000
    28 C      -1.772421     0.194109    -0.600186 C          1 UNL1 0.000
    29 C      -0.358863     0.221245    -0.617219 C          1 UNL1 0.000
    30 C       0.427362     0.334044     0.549870 C          1 UNL1 0.000
    31 C      -0.290192     0.406780     1.780906 C          1 UNL1 0.000
    32 C      -1.801240     0.391840     1.797999 C          1 UNL1 0.000
    33 N       0.240275     0.491798     3.014603 N          1 UNL1 0.000
    34 S      -1.025114     0.530113     4.082539 S          1 UNL1 0.000
    35 N      -2.309175     0.464360     3.041263 N          1 UNL1 0.000
    36 H      -6.221057     5.236835     0.541149 H          1 UNL1 0.000
    37 H      -7.551807     3.259063     1.227076 H          1 UNL1 0.000
    38 H      -6.535829     1.040642     1.312243 H          1 UNL1 0.000
    39 H      -2.827713     2.743387    -0.126266 H          1 UNL1 0.000
    40 H      -3.838863     4.950215    -0.090086 H          1 UNL1 0.000
    41 H      -6.436328    -0.208583    -0.625945 H          1 UNL1 0.000
    42 H      -7.656832    -2.320509    -0.543083 H          1 UNL1 0.000
    43 H      -4.328958    -4.194159     1.432032 H          1 UNL1 0.000
    44 H      -3.137986    -2.079450     1.454780 H          1 UNL1 0.000
    45 H      -7.158067    -3.372038     2.859353 H          1 UNL1 0.000
    46 H      -7.699360    -4.348058     5.034786 H          1 UNL1 0.000
    47 H      -8.024141    -6.797296     5.269539 H          1 UNL1 0.000
    48 H      -7.714465    -8.271939     3.298479 H          1 UNL1 0.000
    49 H      -7.078347    -7.329981     1.124295 H          1 UNL1 0.000
    50 H      -8.977765    -6.283629    -0.024885 H          1 UNL1 0.000
    51 H      -9.603168    -7.268965    -2.177238 H          1 UNL1 0.000
    52 H      -8.314508    -6.739252    -4.230262 H          1 UNL1 0.000
    53 H      -6.344084    -5.236105    -4.091043 H          1 UNL1 0.000
    54 H      -5.630506    -4.326886    -1.937634 H          1 UNL1 0.000
    55 H      -2.299210     0.123280    -1.553514 H          1 UNL1 0.000
    56 H       0.142280     0.164651    -1.585137 H          1 UNL1 0.000
    57 C       1.885188     0.366442     0.525365 C          1 UNL1 0.000
    58 C       2.622919    -0.812694     0.373183 C          1 UNL1 0.000
    59 C       4.021088    -0.784807     0.384387 C          1 UNL1 0.000
    60 C       4.716654     0.423277     0.542491 C          1 UNL1 0.000
    61 C       3.983996     1.605698     0.680997 C          1 UNL1 0.000
    62 C       2.582397     1.574418     0.671059 C          1 UNL1 0.000
    63 C       6.212836     0.362281     0.561750 C          1 UNL1 0.000
    64 C       7.044565     1.605813     0.753035 C          1 UNL1 0.000
    65 O       6.769883    -0.726674     0.430934 O          1 UNL1 0.000
    66 H       2.114969    -1.769318     0.266533 H          1 UNL1 0.000
    67 H       4.565459    -1.722373     0.280661 H          1 UNL1 0.000
    68 H       4.458041     2.571981     0.810008 H          1 UNL1 0.000
    69 H       2.033493     2.507086     0.794168 H          1 UNL1 0.000
    70 H       7.562988     1.537813     1.713622 H          1 UNL1 0.000
    71 H       6.477570     2.533463     0.732264 H          1 UNL1 0.000
    72 H       7.780045     1.657004    -0.055653 H          1 UNL1 0.000
@<TRIPOS>BOND
     1      1      2   2
     2      2      3   1
     3      3      4   2
     4      4      5   1
     5      5      6   2
     6      6      1   1
     7      4      7   1
     8      7      8   1
     9      8      9   2
    10      9     10   1
    11     10     11   2
    12     11     12   1
    13     12     13   2
    14     13      8   1
    15     25     26   2
    16     24     25   1
    17     23     24   2
    18     22     23   1
    19     21     22   2
    20     21     26   1
    21     19     20   2
    22     18     19   1
    23     17     18   2
    24     16     17   1
    25     15     16   2
    26     15     20   1
    27     14     15   1
    28     14     21   1
    29     11     14   1
    30     27     28   2
    31     28     29   1
    32     29     30   2
    33     30     31   1
    34     31     32   1
    35     32     27   1
    36     31     33   2
    37     33     34   1
    38     34     35   1
    39     35     32   2
    40      7     27   1
    41      1     36   1
    42      2     37   1
    43      3     38   1
    44      5     39   1
    45      6     40   1
    46      9     41   1
    47     10     42   1
    48     12     43   1
    49     13     44   1
    50     16     45   1
    51     17     46   1
    52     18     47   1
    53     19     48   1
    54     20     49   1
    55     22     50   1
    56     23     51   1
    57     24     52   1
    58     25     53   1
    59     26     54   1
    60     28     55   1
    61     29     56   1
    62     57     58   2
    63     58     59   1
    64     59     60   2
    65     60     61   1
    66     61     62   2
    67     62     57   1
    68     60     63   1
    69     63     64   1
    70     63     65   2
    71     58     66   1
    72     59     67   1
    73     61     68   1
    74     62     69   1
    75     64     70   1
    76     64     71   1
    77     64     72   1
    78     30     57   1
