# Produced with molli package
@<TRIPOS>MOLECULE
J_8_K
69 75 0 0 0
SMALL
USER_CHARGES

@<TRIPOS>ATOM
     1 C      -6.004931     4.242867     0.199547 C          1 UNL1 0.000
     2 C      -6.620037     3.095774    -0.292010 C          1 UNL1 0.000
     3 C      -5.978043     1.855428    -0.195647 C          1 UNL1 0.000
     4 C      -4.716488     1.728259     0.413196 C          1 UNL1 0.000
     5 C      -4.112462     2.909715     0.889134 C          1 UNL1 0.000
     6 C      -4.747648     4.151433     0.784976 C          1 UNL1 0.000
     7 N      -4.045141     0.451587     0.511446 N          1 UNL1 0.000
     8 C      -4.741707    -0.811319     0.559203 C          1 UNL1 0.000
     9 C      -5.966059    -0.954915     1.233179 C          1 UNL1 0.000
    10 C      -6.648511    -2.179121     1.249181 C          1 UNL1 0.000
    11 C      -6.122673    -3.300982     0.593464 C          1 UNL1 0.000
    12 C      -4.884863    -3.176642    -0.049926 C          1 UNL1 0.000
    13 C      -4.202631    -1.955653    -0.057178 C          1 UNL1 0.000
    14 N      -6.835858    -4.553167     0.571451 N          1 UNL1 0.000
    15 C      -7.259893    -5.145174     1.820534 C          1 UNL1 0.000
    16 C      -6.503205    -4.970221     2.995659 C          1 UNL1 0.000
    17 C      -6.900460    -5.541083     4.208225 C          1 UNL1 0.000
    18 C      -8.062579    -6.303412     4.271043 C          1 UNL1 0.000
    19 C      -8.832516    -6.485412     3.125481 C          1 UNL1 0.000
    20 C      -8.439503    -5.904716     1.914901 C          1 UNL1 0.000
    21 C      -7.085610    -5.188972    -0.704762 C          1 UNL1 0.000
    22 C      -7.079454    -6.587333    -0.849751 C          1 UNL1 0.000
    23 C      -7.324918    -7.187560    -2.089773 C          1 UNL1 0.000
    24 C      -7.564734    -6.400960    -3.213496 C          1 UNL1 0.000
    25 C      -7.560075    -5.014435    -3.099706 C          1 UNL1 0.000
    26 C      -7.325468    -4.416066    -1.858370 C          1 UNL1 0.000
    27 C      -2.614632     0.431406     0.601830 C          1 UNL1 0.000
    28 C      -1.827517     0.543182    -0.572112 C          1 UNL1 0.000
    29 C      -0.414349     0.532628    -0.575017 C          1 UNL1 0.000
    30 C       0.360172     0.436591     0.600452 C          1 UNL1 0.000
    31 C      -0.368639     0.341949     1.822724 C          1 UNL1 0.000
    32 C      -1.881134     0.330131     1.822979 C          1 UNL1 0.000
    33 N       0.150965     0.265779     3.061451 N          1 UNL1 0.000
    34 S      -1.125697     0.192751     4.115103 S          1 UNL1 0.000
    35 N      -2.400303     0.248699     3.061105 N          1 UNL1 0.000
    36 H      -6.502523     5.206048     0.124377 H          1 UNL1 0.000
    37 H      -7.600194     3.162709    -0.757032 H          1 UNL1 0.000
    38 H      -6.476558     0.988959    -0.622306 H          1 UNL1 0.000
    39 H      -3.140520     2.884090     1.373371 H          1 UNL1 0.000
    40 H      -4.258051     5.042732     1.168966 H          1 UNL1 0.000
    41 H      -6.399445    -0.113542     1.768908 H          1 UNL1 0.000
    42 H      -7.605171    -2.247900     1.761781 H          1 UNL1 0.000
    43 H      -4.440763    -4.037815    -0.543833 H          1 UNL1 0.000
    44 H      -3.252267    -1.912554    -0.580390 H          1 UNL1 0.000
    45 H      -5.579343    -4.396579     2.975191 H          1 UNL1 0.000
    46 H      -6.296717    -5.390742     5.099409 H          1 UNL1 0.000
    47 H      -8.369237    -6.751920     5.212260 H          1 UNL1 0.000
    48 H      -9.743960    -7.075673     3.171532 H          1 UNL1 0.000
    49 H      -9.076473    -6.041617     1.044527 H          1 UNL1 0.000
    50 H      -6.865780    -7.227762     0.002415 H          1 UNL1 0.000
    51 H      -7.322609    -8.271068    -2.176145 H          1 UNL1 0.000
    52 H      -7.752197    -6.867639    -4.177014 H          1 UNL1 0.000
    53 H      -7.742513    -4.394122    -3.973313 H          1 UNL1 0.000
    54 H      -7.346696    -3.330486    -1.796975 H          1 UNL1 0.000
    55 H      -2.344303     0.628558    -1.529749 H          1 UNL1 0.000
    56 H       0.095748     0.608027    -1.536829 H          1 UNL1 0.000
    57 C       1.818113     0.449742     0.587189 C          1 UNL1 0.000
    58 C       2.543583    -0.746650     0.462469 C          1 UNL1 0.000
    59 C       3.941352    -0.738470     0.453007 C          1 UNL1 0.000
    60 C       4.620717     0.479434     0.571827 C          1 UNL1 0.000
    61 C       3.917731     1.682559     0.693768 C          1 UNL1 0.000
    62 C       2.520557     1.661574     0.698080 C          1 UNL1 0.000
    63 N       6.085198     0.492988     0.568305 N          1 UNL1 0.000
    64 O       6.667938    -0.490503     0.094098 O          1 UNL1 0.000
    65 O       6.651006     1.493162     1.036609 O          1 UNL1 0.000
    66 H       2.018762    -1.697677     0.383069 H          1 UNL1 0.000
    67 H       4.479447    -1.679699     0.363613 H          1 UNL1 0.000
    68 H       4.436773     2.634228     0.787451 H          1 UNL1 0.000
    69 H       1.976823     2.599702     0.800083 H          1 UNL1 0.000
@<TRIPOS>BOND
     1      1      2   2
     2      2      3   1
     3      3      4   2
     4      4      5   1
     5      5      6   2
     6      6      1   1
     7      4      7   1
     8      7      8   1
     9      8      9   2
    10      9     10   1
    11     10     11   2
    12     11     12   1
    13     12     13   2
    14     13      8   1
    15     25     26   2
    16     24     25   1
    17     23     24   2
    18     22     23   1
    19     21     22   2
    20     21     26   1
    21     19     20   2
    22     18     19   1
    23     17     18   2
    24     16     17   1
    25     15     16   2
    26     15     20   1
    27     14     15   1
    28     14     21   1
    29     11     14   1
    30     27     28   2
    31     28     29   1
    32     29     30   2
    33     30     31   1
    34     31     32   1
    35     32     27   1
    36     31     33   2
    37     33     34   1
    38     34     35   1
    39     35     32   2
    40      7     27   1
    41      1     36   1
    42      2     37   1
    43      3     38   1
    44      5     39   1
    45      6     40   1
    46      9     41   1
    47     10     42   1
    48     12     43   1
    49     13     44   1
    50     16     45   1
    51     17     46   1
    52     18     47   1
    53     19     48   1
    54     20     49   1
    55     22     50   1
    56     23     51   1
    57     24     52   1
    58     25     53   1
    59     26     54   1
    60     28     55   1
    61     29     56   1
    62     57     58   2
    63     58     59   1
    64     59     60   2
    65     60     61   1
    66     61     62   2
    67     62     57   1
    68     63     64   2
    69     63     65   1
    70     60     63   1
    71     58     66   1
    72     59     67   1
    73     61     68   1
    74     62     69   1
    75     30     57   1
