# Produced with molli package
@<TRIPOS>MOLECULE
J_8_L
71 78 0 0 0
SMALL
USER_CHARGES

@<TRIPOS>ATOM
     1 C      -5.843064     4.147564     0.167605 C          1 UNL1 0.000
     2 C      -6.461501     3.003970    -0.328167 C          1 UNL1 0.000
     3 C      -5.833101     1.757756    -0.216667 C          1 UNL1 0.000
     4 C      -4.586946     1.620005     0.419935 C          1 UNL1 0.000
     5 C      -3.977601     2.798978     0.896984 C          1 UNL1 0.000
     6 C      -4.595688     4.047067     0.772025 C          1 UNL1 0.000
     7 N      -3.930479     0.337162     0.551458 N          1 UNL1 0.000
     8 C      -4.636336    -0.921552     0.626737 C          1 UNL1 0.000
     9 C      -5.914798    -1.022982     1.201876 C          1 UNL1 0.000
    10 C      -6.614949    -2.236539     1.216662 C          1 UNL1 0.000
    11 C      -6.047627    -3.395307     0.670476 C          1 UNL1 0.000
    12 C      -4.752159    -3.321462     0.145282 C          1 UNL1 0.000
    13 C      -4.057326    -2.106465     0.131363 C          1 UNL1 0.000
    14 N      -6.783008    -4.635397     0.639984 N          1 UNL1 0.000
    15 C      -7.255961    -5.184779     1.893988 C          1 UNL1 0.000
    16 C      -6.546736    -4.952546     3.090974 C          1 UNL1 0.000
    17 C      -6.986521    -5.465665     4.314797 C          1 UNL1 0.000
    18 C      -8.142791    -6.235520     4.369808 C          1 UNL1 0.000
    19 C      -8.867661    -6.474439     3.205698 C          1 UNL1 0.000
    20 C      -8.437186    -5.941215     1.984574 C          1 UNL1 0.000
    21 C      -7.029006    -5.260535    -0.645632 C          1 UNL1 0.000
    22 C      -7.187311    -6.650212    -0.787648 C          1 UNL1 0.000
    23 C      -7.447006    -7.230721    -2.035955 C          1 UNL1 0.000
    24 C      -7.519330    -6.437825    -3.177622 C          1 UNL1 0.000
    25 C      -7.333836    -5.064382    -3.073043 C          1 UNL1 0.000
    26 C      -7.098817    -4.484416    -1.822300 C          1 UNL1 0.000
    27 C      -2.497724     0.316869     0.627032 C          1 UNL1 0.000
    28 C      -1.724125     0.472129    -0.550952 C          1 UNL1 0.000
    29 C      -0.311116     0.484637    -0.566514 C          1 UNL1 0.000
    30 C       0.477875     0.363291     0.597648 C          1 UNL1 0.000
    31 C      -0.237164     0.219410     1.823391 C          1 UNL1 0.000
    32 C      -1.750535     0.188286     1.837371 C          1 UNL1 0.000
    33 N       0.292306     0.110542     3.055447 N          1 UNL1 0.000
    34 S      -0.972691    -0.003100     4.117406 S          1 UNL1 0.000
    35 N      -2.257956     0.065219     3.077168 N          1 UNL1 0.000
    36 H      -6.329718     5.115208     0.080167 H          1 UNL1 0.000
    37 H      -7.433932     3.078207    -0.807992 H          1 UNL1 0.000
    38 H      -6.331579     0.895240    -0.650937 H          1 UNL1 0.000
    39 H      -3.014188     2.765292     1.398201 H          1 UNL1 0.000
    40 H      -4.100849     4.935413     1.156025 H          1 UNL1 0.000
    41 H      -6.385141    -0.154720     1.656784 H          1 UNL1 0.000
    42 H      -7.616060    -2.269971     1.640003 H          1 UNL1 0.000
    43 H      -4.277890    -4.214487    -0.254903 H          1 UNL1 0.000
    44 H      -3.061490    -2.102725    -0.302116 H          1 UNL1 0.000
    45 H      -5.627516    -4.370850     3.083379 H          1 UNL1 0.000
    46 H      -6.420028    -5.262779     5.219938 H          1 UNL1 0.000
    47 H      -8.481236    -6.642550     5.318880 H          1 UNL1 0.000
    48 H      -9.775801    -7.070320     3.245558 H          1 UNL1 0.000
    49 H      -9.051707    -6.114379     1.105139 H          1 UNL1 0.000
    50 H      -7.098134    -7.308040     0.072784 H          1 UNL1 0.000
    51 H      -7.586296    -8.305953    -2.113948 H          1 UNL1 0.000
    52 H      -7.714498    -6.889219    -4.146790 H          1 UNL1 0.000
    53 H      -7.376281    -4.437574    -3.959995 H          1 UNL1 0.000
    54 H      -6.981808    -3.404110    -1.778957 H          1 UNL1 0.000
    55 H      -2.250494     0.577741    -1.501112 H          1 UNL1 0.000
    56 H       0.190406     0.595940    -1.529521 H          1 UNL1 0.000
    57 C       1.936316     0.393469     0.564831 C          1 UNL1 0.000
    58 C       2.671976    -0.799613     0.552953 C          1 UNL1 0.000
    59 C       4.071538    -0.803858     0.516210 C          1 UNL1 0.000
    60 C       4.719750     0.434760     0.494246 C          1 UNL1 0.000
    61 C       4.029590     1.645370     0.502888 C          1 UNL1 0.000
    62 C       2.620836     1.622948     0.534490 C          1 UNL1 0.000
    63 N       6.063755     0.734046     0.468735 N          1 UNL1 0.000
    64 C       6.244941     2.092252     0.460176 C          1 UNL1 0.000
    65 C       5.002612     2.682784     0.480413 C          1 UNL1 0.000
    66 H       2.150459    -1.755216     0.580051 H          1 UNL1 0.000
    67 H       4.624117    -1.737238     0.513483 H          1 UNL1 0.000
    68 H       2.070893     2.560021     0.548734 H          1 UNL1 0.000
    69 H       6.803096     0.046592     0.463594 H          1 UNL1 0.000
    70 H       7.239135     2.518582     0.444378 H          1 UNL1 0.000
    71 H       4.810156     3.747691     0.484106 H          1 UNL1 0.000
@<TRIPOS>BOND
     1      1      2   2
     2      2      3   1
     3      3      4   2
     4      4      5   1
     5      5      6   2
     6      6      1   1
     7      4      7   1
     8      7      8   1
     9      8      9   2
    10      9     10   1
    11     10     11   2
    12     11     12   1
    13     12     13   2
    14     13      8   1
    15     25     26   2
    16     24     25   1
    17     23     24   2
    18     22     23   1
    19     21     22   2
    20     21     26   1
    21     19     20   2
    22     18     19   1
    23     17     18   2
    24     16     17   1
    25     15     16   2
    26     15     20   1
    27     14     15   1
    28     14     21   1
    29     11     14   1
    30     27     28   2
    31     28     29   1
    32     29     30   2
    33     30     31   1
    34     31     32   1
    35     32     27   1
    36     31     33   2
    37     33     34   1
    38     34     35   1
    39     35     32   2
    40      7     27   1
    41      1     36   1
    42      2     37   1
    43      3     38   1
    44      5     39   1
    45      6     40   1
    46      9     41   1
    47     10     42   1
    48     12     43   1
    49     13     44   1
    50     16     45   1
    51     17     46   1
    52     18     47   1
    53     19     48   1
    54     20     49   1
    55     22     50   1
    56     23     51   1
    57     24     52   1
    58     25     53   1
    59     26     54   1
    60     28     55   1
    61     29     56   1
    62     57     58   2
    63     58     59   1
    64     59     60   2
    65     60     61   1
    66     61     62   2
    67     62     57   1
    68     60     63   1
    69     63     64   1
    70     64     65   2
    71     65     61   1
    72     58     66   1
    73     59     67   1
    74     62     68   1
    75     63     69   1
    76     64     70   1
    77     65     71   1
    78     30     57   1
