# Produced with molli package
@<TRIPOS>MOLECULE
J_9_N
63 68 0 0 0
SMALL
USER_CHARGES

@<TRIPOS>ATOM
     1 C      -5.159491     4.201521    -1.303428 C          1 UNL1 0.000
     2 C      -5.643859     3.081232    -1.973852 C          1 UNL1 0.000
     3 C      -5.016386     1.840083    -1.817229 C          1 UNL1 0.000
     4 C      -3.912238     1.687256    -0.962774 C          1 UNL1 0.000
     5 C      -3.427449     2.841795    -0.315092 C          1 UNL1 0.000
     6 C      -4.043878     4.084806    -0.481563 C          1 UNL1 0.000
     7 N      -3.254932     0.412981    -0.770005 N          1 UNL1 0.000
     8 C      -3.955435    -0.852103    -0.682868 C          1 UNL1 0.000
     9 C      -5.338510    -0.927347    -0.436787 C          1 UNL1 0.000
    10 C      -6.021479    -2.150966    -0.441625 C          1 UNL1 0.000
    11 C      -5.327012    -3.352739    -0.608637 C          1 UNL1 0.000
    12 C      -3.939467    -3.307038    -0.768451 C          1 UNL1 0.000
    13 C      -3.271286    -2.077017    -0.827887 C          1 UNL1 0.000
    14 N      -6.025272    -4.606982    -0.622703 N          1 UNL1 0.000
    15 C      -6.237080    -5.302772     0.628798 C          1 UNL1 0.000
    16 C      -6.363593    -4.608002     1.846710 C          1 UNL1 0.000
    17 C      -6.593261    -5.280594     3.051979 C          1 UNL1 0.000
    18 C      -6.685440    -6.667895     3.070583 C          1 UNL1 0.000
    19 C      -6.529768    -7.383304     1.887961 C          1 UNL1 0.000
    20 C      -6.297367    -6.708238     0.684444 C          1 UNL1 0.000
    21 C      -6.499384    -5.119910    -1.891855 C          1 UNL1 0.000
    22 C      -7.685427    -5.872902    -1.981331 C          1 UNL1 0.000
    23 C      -8.132588    -6.390532    -3.202462 C          1 UNL1 0.000
    24 C      -7.414141    -6.148478    -4.368800 C          1 UNL1 0.000
    25 C      -6.258165    -5.377589    -4.316345 C          1 UNL1 0.000
    26 C      -5.811700    -4.863657    -3.093715 C          1 UNL1 0.000
    27 C      -1.815747     0.428890    -0.750308 C          1 UNL1 0.000
    28 C      -1.102452     0.643514    -1.940375 C          1 UNL1 0.000
    29 C       0.289760     0.706108    -1.926630 C          1 UNL1 0.000
    30 C       0.978328     0.585894    -0.719124 C          1 UNL1 0.000
    31 C       0.280103     0.381015     0.478449 C          1 UNL1 0.000
    32 C      -1.116296     0.280038     0.456723 C          1 UNL1 0.000
    33 H      -5.645433     5.165667    -1.427218 H          1 UNL1 0.000
    34 H      -6.508459     3.171783    -2.626196 H          1 UNL1 0.000
    35 H      -5.394052     0.994039    -2.385519 H          1 UNL1 0.000
    36 H      -2.566396     2.781939     0.345837 H          1 UNL1 0.000
    37 H      -3.651165     4.956380     0.035568 H          1 UNL1 0.000
    38 H      -5.919719    -0.032000    -0.235564 H          1 UNL1 0.000
    39 H      -7.098456    -2.166079    -0.293355 H          1 UNL1 0.000
    40 H      -3.377975    -4.230703    -0.884742 H          1 UNL1 0.000
    41 H      -2.199279    -2.101014    -1.006099 H          1 UNL1 0.000
    42 H      -6.306979    -3.524275     1.880037 H          1 UNL1 0.000
    43 H      -6.702394    -4.714237     3.973310 H          1 UNL1 0.000
    44 H      -6.868698    -7.189808     4.005866 H          1 UNL1 0.000
    45 H      -6.583758    -8.468698     1.897581 H          1 UNL1 0.000
    46 H      -6.147942    -7.300960    -0.214772 H          1 UNL1 0.000
    47 H      -8.289022    -6.054491    -1.095407 H          1 UNL1 0.000
    48 H      -9.045667    -6.978866    -3.238724 H          1 UNL1 0.000
    49 H      -7.758174    -6.551862    -5.317379 H          1 UNL1 0.000
    50 H      -5.696101    -5.174942    -5.224425 H          1 UNL1 0.000
    51 H      -4.899360    -4.275237    -3.100347 H          1 UNL1 0.000
    52 H      -1.640198     0.759027    -2.878374 H          1 UNL1 0.000
    53 H       0.835826     0.864044    -2.852958 H          1 UNL1 0.000
    54 H       2.063901     0.656643    -0.717972 H          1 UNL1 0.000
    55 H      -1.675458     0.141923     1.379162 H          1 UNL1 0.000
    56 C       1.003853     0.345491     1.739711 C          1 UNL1 0.000
    57 C       0.897594    -0.715290     2.617359 C          1 UNL1 0.000
    58 S       1.842905    -0.490733     4.028088 S          1 UNL1 0.000
    59 C       2.400827     1.030024     3.480572 C          1 UNL1 0.000
    60 C       1.884557     1.354381     2.245783 C          1 UNL1 0.000
    61 H       0.315295    -1.619824     2.504241 H          1 UNL1 0.000
    62 H       3.077657     1.614123     4.088967 H          1 UNL1 0.000
    63 H       2.113443     2.281784     1.734056 H          1 UNL1 0.000
@<TRIPOS>BOND
     1      1      2   2
     2      2      3   1
     3      3      4   2
     4      4      5   1
     5      5      6   2
     6      6      1   1
     7      4      7   1
     8      7      8   1
     9      8      9   2
    10      9     10   1
    11     10     11   2
    12     11     12   1
    13     12     13   2
    14     13      8   1
    15     25     26   2
    16     24     25   1
    17     23     24   2
    18     22     23   1
    19     21     22   2
    20     21     26   1
    21     19     20   2
    22     18     19   1
    23     17     18   2
    24     16     17   1
    25     15     16   2
    26     15     20   1
    27     14     15   1
    28     14     21   1
    29     11     14   1
    30     27     28   2
    31     28     29   1
    32     29     30   2
    33     30     31   1
    34     31     32   2
    35     32     27   1
    36      7     27   1
    37      1     33   1
    38      2     34   1
    39      3     35   1
    40      5     36   1
    41      6     37   1
    42      9     38   1
    43     10     39   1
    44     12     40   1
    45     13     41   1
    46     16     42   1
    47     17     43   1
    48     18     44   1
    49     19     45   1
    50     20     46   1
    51     22     47   1
    52     23     48   1
    53     24     49   1
    54     25     50   1
    55     26     51   1
    56     28     52   1
    57     29     53   1
    58     30     54   1
    59     32     55   1
    60     56     57   2
    61     57     58   1
    62     58     59   1
    63     59     60   2
    64     60     56   1
    65     57     61   1
    66     59     62   1
    67     60     63   1
    68     31     56   1
