# Produced with molli package
@<TRIPOS>MOLECULE
J_9_R
67 72 0 0 0
SMALL
USER_CHARGES

@<TRIPOS>ATOM
     1 C      -5.229733     4.222405    -0.966726 C          1 UNL1 0.000
     2 C      -5.824017     3.090507    -1.516937 C          1 UNL1 0.000
     3 C      -5.195857     1.843810    -1.413616 C          1 UNL1 0.000
     4 C      -3.968680     1.697308    -0.742924 C          1 UNL1 0.000
     5 C      -3.383564     2.862932    -0.208133 C          1 UNL1 0.000
     6 C      -4.006065     4.110282    -0.316359 C          1 UNL1 0.000
     7 N      -3.300898     0.416518    -0.637549 N          1 UNL1 0.000
     8 C      -4.008430    -0.842096    -0.637890 C          1 UNL1 0.000
     9 C      -5.267106    -0.973188    -0.026018 C          1 UNL1 0.000
    10 C      -5.969938    -2.184155    -0.057932 C          1 UNL1 0.000
    11 C      -5.432419    -3.309134    -0.699128 C          1 UNL1 0.000
    12 C      -4.163681    -3.200044    -1.280957 C          1 UNL1 0.000
    13 C      -3.459574    -1.990132    -1.238414 C          1 UNL1 0.000
    14 N      -6.160031    -4.552664    -0.736809 N          1 UNL1 0.000
    15 C      -6.623687    -5.110551     0.513552 C          1 UNL1 0.000
    16 C      -5.838920    -5.003405     1.678449 C          1 UNL1 0.000
    17 C      -6.273877    -5.529640     2.897077 C          1 UNL1 0.000
    18 C      -7.503561    -6.175941     2.975221 C          1 UNL1 0.000
    19 C      -8.300942    -6.288124     1.838523 C          1 UNL1 0.000
    20 C      -7.868355    -5.753802     0.620333 C          1 UNL1 0.000
    21 C      -6.397519    -5.205780    -2.006976 C          1 UNL1 0.000
    22 C      -6.528378    -6.602916    -2.108528 C          1 UNL1 0.000
    23 C      -6.773067    -7.224153    -3.338740 C          1 UNL1 0.000
    24 C      -6.871476    -6.462868    -4.499539 C          1 UNL1 0.000
    25 C      -6.726976    -5.081091    -4.431297 C          1 UNL1 0.000
    26 C      -6.496988    -4.460550    -3.198786 C          1 UNL1 0.000
    27 C      -1.863281     0.407612    -0.658988 C          1 UNL1 0.000
    28 C      -1.179701     0.592682    -1.869612 C          1 UNL1 0.000
    29 C       0.210805     0.646762    -1.890036 C          1 UNL1 0.000
    30 C       0.924846     0.568125    -0.693661 C          1 UNL1 0.000
    31 C       0.264620     0.411963     0.538325 C          1 UNL1 0.000
    32 C      -1.134236     0.288462     0.535784 C          1 UNL1 0.000
    33 H      -5.715668     5.190823    -1.050480 H          1 UNL1 0.000
    34 H      -6.775001     3.175225    -2.036412 H          1 UNL1 0.000
    35 H      -5.671654     0.989990    -1.888873 H          1 UNL1 0.000
    36 H      -2.433117     2.814487     0.315935 H          1 UNL1 0.000
    37 H      -3.531203     4.990276     0.109457 H          1 UNL1 0.000
    38 H      -5.715876    -0.130946     0.495185 H          1 UNL1 0.000
    39 H      -6.950212    -2.242132     0.409521 H          1 UNL1 0.000
    40 H      -3.707904    -4.064543    -1.757915 H          1 UNL1 0.000
    41 H      -2.479433    -1.958966    -1.706174 H          1 UNL1 0.000
    42 H      -4.866173    -4.517858     1.641235 H          1 UNL1 0.000
    43 H      -5.647835    -5.434683     3.780359 H          1 UNL1 0.000
    44 H      -7.841243    -6.588542     3.922209 H          1 UNL1 0.000
    45 H      -9.264619    -6.786958     1.898757 H          1 UNL1 0.000
    46 H      -8.522395    -5.830215    -0.244742 H          1 UNL1 0.000
    47 H      -6.426416    -7.231820    -1.227664 H          1 UNL1 0.000
    48 H      -6.880691    -8.304707    -3.386845 H          1 UNL1 0.000
    49 H      -7.057034    -6.945520    -5.455479 H          1 UNL1 0.000
    50 H      -6.797040    -4.480403    -5.334430 H          1 UNL1 0.000
    51 H      -6.410888    -3.376770    -3.179819 H          1 UNL1 0.000
    52 H      -1.740499     0.686921    -2.796284 H          1 UNL1 0.000
    53 H       0.736725     0.768495    -2.833061 H          1 UNL1 0.000
    54 H       2.010919     0.634488    -0.724658 H          1 UNL1 0.000
    55 H      -1.669377     0.160760     1.474947 H          1 UNL1 0.000
    56 C       1.016970     0.452339     1.796078 C          1 UNL1 0.000
    57 N       0.982189    -0.668684     2.561419 N          1 UNL1 0.000
    58 C       1.696469    -0.661657     3.715112 C          1 UNL1 0.000
    59 C       2.421685     0.436498     4.142094 C          1 UNL1 0.000
    60 C       2.439684     1.595927     3.371993 C          1 UNL1 0.000
    61 C       1.729547     1.596470     2.173387 C          1 UNL1 0.000
    62 N       3.156568     0.370095     5.384228 N          1 UNL1 0.000
    63 O       3.136561     1.369237     6.110368 O          1 UNL1 0.000
    64 O       3.763552    -0.684170     5.627701 O          1 UNL1 0.000
    65 H       1.652876    -1.585609     4.286495 H          1 UNL1 0.000
    66 H       2.994912     2.477147     3.681664 H          1 UNL1 0.000
    67 H       1.723513     2.482001     1.543417 H          1 UNL1 0.000
@<TRIPOS>BOND
     1      1      2   2
     2      2      3   1
     3      3      4   2
     4      4      5   1
     5      5      6   2
     6      6      1   1
     7      4      7   1
     8      7      8   1
     9      8      9   2
    10      9     10   1
    11     10     11   2
    12     11     12   1
    13     12     13   2
    14     13      8   1
    15     25     26   2
    16     24     25   1
    17     23     24   2
    18     22     23   1
    19     21     22   2
    20     21     26   1
    21     19     20   2
    22     18     19   1
    23     17     18   2
    24     16     17   1
    25     15     16   2
    26     15     20   1
    27     14     15   1
    28     14     21   1
    29     11     14   1
    30     27     28   2
    31     28     29   1
    32     29     30   2
    33     30     31   1
    34     31     32   2
    35     32     27   1
    36      7     27   1
    37      1     33   1
    38      2     34   1
    39      3     35   1
    40      5     36   1
    41      6     37   1
    42      9     38   1
    43     10     39   1
    44     12     40   1
    45     13     41   1
    46     16     42   1
    47     17     43   1
    48     18     44   1
    49     19     45   1
    50     20     46   1
    51     22     47   1
    52     23     48   1
    53     24     49   1
    54     25     50   1
    55     26     51   1
    56     28     52   1
    57     29     53   1
    58     30     54   1
    59     32     55   1
    60     56     57   2
    61     57     58   1
    62     58     59   2
    63     59     60   1
    64     60     61   2
    65     61     56   1
    66     62     63   2
    67     62     64   1
    68     59     62   1
    69     58     65   1
    70     60     66   1
    71     61     67   1
    72     31     56   1
