# Produced with molli package
@<TRIPOS>MOLECULE
J_9_M
67 72 0 0 0
SMALL
USER_CHARGES

@<TRIPOS>ATOM
     1 C      -5.068518     4.274989    -0.973867 C          1 UNL1 0.000
     2 C      -5.823884     3.153628    -1.295214 C          1 UNL1 0.000
     3 C      -5.254025     1.871842    -1.242641 C          1 UNL1 0.000
     4 C      -3.939945     1.662482    -0.794733 C          1 UNL1 0.000
     5 C      -3.194024     2.831713    -0.507313 C          1 UNL1 0.000
     6 C      -3.741824     4.115887    -0.604025 C          1 UNL1 0.000
     7 N      -3.325537     0.346337    -0.665833 N          1 UNL1 0.000
     8 C      -4.029022    -0.925949    -0.609620 C          1 UNL1 0.000
     9 C      -5.383991    -1.043031    -0.261633 C          1 UNL1 0.000
    10 C      -6.065162    -2.268239    -0.332848 C          1 UNL1 0.000
    11 C      -5.380533    -3.452884    -0.625911 C          1 UNL1 0.000
    12 C      -4.006558    -3.381124    -0.862191 C          1 UNL1 0.000
    13 C      -3.354283    -2.139544    -0.880925 C          1 UNL1 0.000
    14 N      -6.069096    -4.720726    -0.629559 N          1 UNL1 0.000
    15 C      -6.345535    -5.342360     0.661067 C          1 UNL1 0.000
    16 C      -6.259531    -4.603828     1.863863 C          1 UNL1 0.000
    17 C      -6.585007    -5.153685     3.109048 C          1 UNL1 0.000
    18 C      -6.993659    -6.475338     3.196230 C          1 UNL1 0.000
    19 C      -7.019955    -7.255113     2.046094 C          1 UNL1 0.000
    20 C      -6.668204    -6.703078     0.804186 C          1 UNL1 0.000
    21 C      -6.502409    -5.247999    -1.918899 C          1 UNL1 0.000
    22 C      -7.600289    -6.116528    -2.060303 C          1 UNL1 0.000
    23 C      -7.969006    -6.654535    -3.303418 C          1 UNL1 0.000
    24 C      -7.286623    -6.289158    -4.457128 C          1 UNL1 0.000
    25 C      -6.246676    -5.375086    -4.368354 C          1 UNL1 0.000
    26 C      -5.864262    -4.864765    -3.120186 C          1 UNL1 0.000
    27 C      -1.881822     0.310180    -0.671947 C          1 UNL1 0.000
    28 C      -1.187445     0.375385    -1.889617 C          1 UNL1 0.000
    29 C       0.204106     0.406299    -1.900704 C          1 UNL1 0.000
    30 C       0.909054     0.393275    -0.695708 C          1 UNL1 0.000
    31 C       0.237197     0.336584     0.536933 C          1 UNL1 0.000
    32 C      -1.164481     0.276194     0.536615 C          1 UNL1 0.000
    33 H      -5.505517     5.268011    -1.029914 H          1 UNL1 0.000
    34 H      -6.859608     3.271080    -1.604197 H          1 UNL1 0.000
    35 H      -5.871318     1.052305    -1.592957 H          1 UNL1 0.000
    36 H      -2.153183     2.771538    -0.200821 H          1 UNL1 0.000
    37 H      -3.125047     4.983729    -0.385704 H          1 UNL1 0.000
    38 H      -5.949598    -0.189875     0.097516 H          1 UNL1 0.000
    39 H      -7.128623    -2.305410    -0.107045 H          1 UNL1 0.000
    40 H      -3.442114    -4.289239    -1.059803 H          1 UNL1 0.000
    41 H      -2.293873    -2.150188    -1.119287 H          1 UNL1 0.000
    42 H      -5.939754    -3.566862     1.870211 H          1 UNL1 0.000
    43 H      -6.519439    -4.538121     4.002532 H          1 UNL1 0.000
    44 H      -7.267589    -6.899713     4.157953 H          1 UNL1 0.000
    45 H      -7.308323    -8.301188     2.110520 H          1 UNL1 0.000
    46 H      -6.639950    -7.378426    -0.045224 H          1 UNL1 0.000
    47 H      -8.218481    -6.380877    -1.208121 H          1 UNL1 0.000
    48 H      -8.801000    -7.351583    -3.365810 H          1 UNL1 0.000
    49 H      -7.575608    -6.698381    -5.421412 H          1 UNL1 0.000
    50 H      -5.724513    -5.053373    -5.266037 H          1 UNL1 0.000
    51 H      -5.042310    -4.156267    -3.120295 H          1 UNL1 0.000
    52 H      -1.740854     0.406930    -2.824901 H          1 UNL1 0.000
    53 H       0.739215     0.457909    -2.845077 H          1 UNL1 0.000
    54 H       1.996232     0.445587    -0.719745 H          1 UNL1 0.000
    55 H      -1.711486     0.239536     1.476488 H          1 UNL1 0.000
    56 C       0.995044     0.374237     1.790776 C          1 UNL1 0.000
    57 C       1.674962    -0.762716     2.250893 C          1 UNL1 0.000
    58 C       2.430789    -0.717820     3.426742 C          1 UNL1 0.000
    59 C       2.519607     0.469446     4.159189 C          1 UNL1 0.000
    60 C       1.843011     1.608503     3.713888 C          1 UNL1 0.000
    61 C       1.084728     1.558799     2.539289 C          1 UNL1 0.000
    62 C       3.305911     0.519149     5.356610 C          1 UNL1 0.000
    63 N       3.946204     0.559091     6.324515 N          1 UNL1 0.000
    64 H       1.619023    -1.693419     1.688789 H          1 UNL1 0.000
    65 H       2.950578    -1.613931     3.760427 H          1 UNL1 0.000
    66 H       1.904925     2.541846     4.270699 H          1 UNL1 0.000
    67 H       0.572767     2.457925     2.199671 H          1 UNL1 0.000
@<TRIPOS>BOND
     1      1      2   2
     2      2      3   1
     3      3      4   2
     4      4      5   1
     5      5      6   2
     6      6      1   1
     7      4      7   1
     8      7      8   1
     9      8      9   2
    10      9     10   1
    11     10     11   2
    12     11     12   1
    13     12     13   2
    14     13      8   1
    15     25     26   2
    16     24     25   1
    17     23     24   2
    18     22     23   1
    19     21     22   2
    20     21     26   1
    21     19     20   2
    22     18     19   1
    23     17     18   2
    24     16     17   1
    25     15     16   2
    26     15     20   1
    27     14     15   1
    28     14     21   1
    29     11     14   1
    30     27     28   2
    31     28     29   1
    32     29     30   2
    33     30     31   1
    34     31     32   2
    35     32     27   1
    36      7     27   1
    37      1     33   1
    38      2     34   1
    39      3     35   1
    40      5     36   1
    41      6     37   1
    42      9     38   1
    43     10     39   1
    44     12     40   1
    45     13     41   1
    46     16     42   1
    47     17     43   1
    48     18     44   1
    49     19     45   1
    50     20     46   1
    51     22     47   1
    52     23     48   1
    53     24     49   1
    54     25     50   1
    55     26     51   1
    56     28     52   1
    57     29     53   1
    58     30     54   1
    59     32     55   1
    60     56     57   2
    61     57     58   1
    62     58     59   2
    63     59     60   1
    64     60     61   2
    65     61     56   1
    66     62     63   3
    67     59     62   1
    68     57     64   1
    69     58     65   1
    70     60     66   1
    71     61     67   1
    72     31     56   1
