# Produced with molli package
@<TRIPOS>MOLECULE
J_9_Q
64 69 0 0 0
SMALL
USER_CHARGES

@<TRIPOS>ATOM
     1 C      -5.177355     4.121715    -1.071694 C          1 UNL1 0.000
     2 C      -5.787643     2.971619    -1.564170 C          1 UNL1 0.000
     3 C      -5.161472     1.727454    -1.426460 C          1 UNL1 0.000
     4 C      -3.918627     1.603965    -0.781040 C          1 UNL1 0.000
     5 C      -3.318716     2.786048    -0.302069 C          1 UNL1 0.000
     6 C      -3.940170     4.030283    -0.443655 C          1 UNL1 0.000
     7 N      -3.249388     0.328014    -0.646514 N          1 UNL1 0.000
     8 C      -3.957896    -0.927564    -0.583899 C          1 UNL1 0.000
     9 C      -5.188927    -1.042771     0.085607 C          1 UNL1 0.000
    10 C      -5.896340    -2.252451     0.106708 C          1 UNL1 0.000
    11 C      -5.391376    -3.387462    -0.542136 C          1 UNL1 0.000
    12 C      -4.147886    -3.291739    -1.180069 C          1 UNL1 0.000
    13 C      -3.437619    -2.086282    -1.187091 C          1 UNL1 0.000
    14 N      -6.131194    -4.623479    -0.563619 N          1 UNL1 0.000
    15 C      -6.576480    -5.208083     0.680923 C          1 UNL1 0.000
    16 C      -5.833116    -5.040892     1.865099 C          1 UNL1 0.000
    17 C      -6.251805    -5.608268     3.072139 C          1 UNL1 0.000
    18 C      -7.422761    -6.358351     3.120129 C          1 UNL1 0.000
    19 C      -8.179722    -6.532715     1.964890 C          1 UNL1 0.000
    20 C      -7.764473    -5.956827     0.759670 C          1 UNL1 0.000
    21 C      -6.387495    -5.255747    -1.838755 C          1 UNL1 0.000
    22 C      -6.354537    -6.653017    -1.989000 C          1 UNL1 0.000
    23 C      -6.606707    -7.252185    -3.227617 C          1 UNL1 0.000
    24 C      -6.885374    -6.464875    -4.342118 C          1 UNL1 0.000
    25 C      -6.909967    -5.078690    -4.221111 C          1 UNL1 0.000
    26 C      -6.662960    -4.480882    -2.982092 C          1 UNL1 0.000
    27 C      -1.813276     0.313338    -0.708765 C          1 UNL1 0.000
    28 C      -1.160257     0.507009    -1.933950 C          1 UNL1 0.000
    29 C       0.229853     0.543597    -1.989977 C          1 UNL1 0.000
    30 C       0.975095     0.437610    -0.813839 C          1 UNL1 0.000
    31 C       0.347941     0.273694     0.434959 C          1 UNL1 0.000
    32 C      -1.053557     0.169373     0.463507 C          1 UNL1 0.000
    33 H      -5.661756     5.088161    -1.182465 H          1 UNL1 0.000
    34 H      -6.749508     3.040072    -2.065581 H          1 UNL1 0.000
    35 H      -5.649846     0.856786    -1.856118 H          1 UNL1 0.000
    36 H      -2.357027     2.752025     0.203101 H          1 UNL1 0.000
    37 H      -3.453623     4.923899    -0.061571 H          1 UNL1 0.000
    38 H      -5.611942    -0.186866     0.606303 H          1 UNL1 0.000
    39 H      -6.857565    -2.298295     0.613092 H          1 UNL1 0.000
    40 H      -3.718995    -4.163237    -1.669152 H          1 UNL1 0.000
    41 H      -2.480342    -2.064477    -1.700549 H          1 UNL1 0.000
    42 H      -4.902204    -4.478454     1.855552 H          1 UNL1 0.000
    43 H      -5.657005    -5.465792     3.970530 H          1 UNL1 0.000
    44 H      -7.745759    -6.804280     4.057032 H          1 UNL1 0.000
    45 H      -9.097514    -7.113845     1.998597 H          1 UNL1 0.000
    46 H      -8.390237    -6.089012    -0.119601 H          1 UNL1 0.000
    47 H      -6.113079    -7.290054    -1.141646 H          1 UNL1 0.000
    48 H      -6.579267    -8.334736    -3.320398 H          1 UNL1 0.000
    49 H      -7.079600    -6.930743    -5.304675 H          1 UNL1 0.000
    50 H      -7.123775    -4.458647    -5.087744 H          1 UNL1 0.000
    51 H      -6.704068    -3.396410    -2.911936 H          1 UNL1 0.000
    52 H      -1.743693     0.617918    -2.844736 H          1 UNL1 0.000
    53 H       0.732059     0.669099    -2.945429 H          1 UNL1 0.000
    54 H       2.061000     0.482595    -0.880812 H          1 UNL1 0.000
    55 H      -1.566672     0.034237     1.414269 H          1 UNL1 0.000
    56 C       1.125720     0.267227     1.679804 C          1 UNL1 0.000
    57 N       0.870764    -0.731502     2.562105 N          1 UNL1 0.000
    58 C       1.596236    -0.711140     3.706067 C          1 UNL1 0.000
    59 C       2.533494     0.271236     3.979251 C          1 UNL1 0.000
    60 N       2.792153     1.280429     3.121962 N          1 UNL1 0.000
    61 C       2.068925     1.254484     1.974072 C          1 UNL1 0.000
    62 H       1.402093    -1.516119     4.404854 H          1 UNL1 0.000
    63 H       3.102934     0.272303     4.901785 H          1 UNL1 0.000
    64 H       2.260218     2.076278     1.292230 H          1 UNL1 0.000
@<TRIPOS>BOND
     1      1      2   2
     2      2      3   1
     3      3      4   2
     4      4      5   1
     5      5      6   2
     6      6      1   1
     7      4      7   1
     8      7      8   1
     9      8      9   2
    10      9     10   1
    11     10     11   2
    12     11     12   1
    13     12     13   2
    14     13      8   1
    15     25     26   2
    16     24     25   1
    17     23     24   2
    18     22     23   1
    19     21     22   2
    20     21     26   1
    21     19     20   2
    22     18     19   1
    23     17     18   2
    24     16     17   1
    25     15     16   2
    26     15     20   1
    27     14     15   1
    28     14     21   1
    29     11     14   1
    30     27     28   2
    31     28     29   1
    32     29     30   2
    33     30     31   1
    34     31     32   2
    35     32     27   1
    36      7     27   1
    37      1     33   1
    38      2     34   1
    39      3     35   1
    40      5     36   1
    41      6     37   1
    42      9     38   1
    43     10     39   1
    44     12     40   1
    45     13     41   1
    46     16     42   1
    47     17     43   1
    48     18     44   1
    49     19     45   1
    50     20     46   1
    51     22     47   1
    52     23     48   1
    53     24     49   1
    54     25     50   1
    55     26     51   1
    56     28     52   1
    57     29     53   1
    58     30     54   1
    59     32     55   1
    60     56     57   2
    61     57     58   1
    62     58     59   2
    63     59     60   1
    64     60     61   2
    65     61     56   1
    66     58     62   1
    67     59     63   1
    68     61     64   1
    69     31     56   1
