# Produced with molli package
@<TRIPOS>MOLECULE
J_9_L
70 76 0 0 0
SMALL
USER_CHARGES

@<TRIPOS>ATOM
     1 C      -5.015803     4.148458    -1.153531 C          1 UNL1 0.000
     2 C      -5.623222     3.014227    -1.684621 C          1 UNL1 0.000
     3 C      -5.022892     1.756919    -1.539217 C          1 UNL1 0.000
     4 C      -3.815402     1.600487    -0.837229 C          1 UNL1 0.000
     5 C      -3.216192     2.770478    -0.324122 C          1 UNL1 0.000
     6 C      -3.806686     4.028262    -0.479470 C          1 UNL1 0.000
     7 N      -3.169685     0.311929    -0.682827 N          1 UNL1 0.000
     8 C      -3.878689    -0.949226    -0.664220 C          1 UNL1 0.000
     9 C      -5.194211    -1.054600    -0.178389 C          1 UNL1 0.000
    10 C      -5.886234    -2.273592    -0.197907 C          1 UNL1 0.000
    11 C      -5.276947    -3.432237    -0.695695 C          1 UNL1 0.000
    12 C      -3.954588    -3.354928    -1.143331 C          1 UNL1 0.000
    13 C      -3.265486    -2.136384    -1.113837 C          1 UNL1 0.000
    14 N      -5.991721    -4.681227    -0.734170 N          1 UNL1 0.000
    15 C      -6.400362    -5.269617     0.523442 C          1 UNL1 0.000
    16 C      -5.630301    -5.076411     1.688705 C          1 UNL1 0.000
    17 C      -6.004704    -5.635837     2.913806 C          1 UNL1 0.000
    18 C      -7.158111    -6.407381     3.001664 C          1 UNL1 0.000
    19 C      -7.945124    -6.602696     1.870219 C          1 UNL1 0.000
    20 C      -7.577453    -6.027422     0.648244 C          1 UNL1 0.000
    21 C      -6.284055    -5.275731    -2.022972 C          1 UNL1 0.000
    22 C      -6.447534    -6.662920    -2.188347 C          1 UNL1 0.000
    23 C      -6.771998    -7.216975    -3.433064 C          1 UNL1 0.000
    24 C      -6.906651    -6.398639    -4.550338 C          1 UNL1 0.000
    25 C      -6.710212    -5.027951    -4.425638 C          1 UNL1 0.000
    26 C      -6.404675    -4.474777    -3.177403 C          1 UNL1 0.000
    27 C      -1.730411     0.296418    -0.669142 C          1 UNL1 0.000
    28 C      -1.018203     0.429760    -1.870321 C          1 UNL1 0.000
    29 C       0.372745     0.469290    -1.859632 C          1 UNL1 0.000
    30 C       1.058084     0.416036    -0.645214 C          1 UNL1 0.000
    31 C       0.368952     0.303446     0.574728 C          1 UNL1 0.000
    32 C      -1.031074     0.211407     0.546337 C          1 UNL1 0.000
    33 H      -5.478165     5.124670    -1.272232 H          1 UNL1 0.000
    34 H      -6.562343     3.105955    -2.224051 H          1 UNL1 0.000
    35 H      -5.505271     0.904164    -2.008784 H          1 UNL1 0.000
    36 H      -2.274910     2.719858     0.217143 H          1 UNL1 0.000
    37 H      -3.316413     4.908587    -0.071939 H          1 UNL1 0.000
    38 H      -5.702082    -0.186775     0.234734 H          1 UNL1 0.000
    39 H      -6.911501    -2.314330     0.162176 H          1 UNL1 0.000
    40 H      -3.450711    -4.248305    -1.504077 H          1 UNL1 0.000
    41 H      -2.239175    -2.133172    -1.471004 H          1 UNL1 0.000
    42 H      -4.712825    -4.493531     1.652704 H          1 UNL1 0.000
    43 H      -5.389900    -5.468285     3.794200 H          1 UNL1 0.000
    44 H      -7.446327    -6.849632     3.951513 H          1 UNL1 0.000
    45 H      -8.852111    -7.197903     1.936387 H          1 UNL1 0.000
    46 H      -8.236175    -6.168500    -0.204670 H          1 UNL1 0.000
    47 H      -6.314575    -7.339336    -1.348105 H          1 UNL1 0.000
    48 H      -6.915197    -8.290439    -3.526699 H          1 UNL1 0.000
    49 H      -7.157544    -6.828151    -5.516627 H          1 UNL1 0.000
    50 H      -6.800258    -4.382244    -5.295339 H          1 UNL1 0.000
    51 H      -6.278850    -3.396426    -3.117769 H          1 UNL1 0.000
    52 H      -1.556601     0.499412    -2.812107 H          1 UNL1 0.000
    53 H       0.922634     0.560401    -2.792168 H          1 UNL1 0.000
    54 H       2.145349     0.473146    -0.649365 H          1 UNL1 0.000
    55 H      -1.592268     0.136987     1.475530 H          1 UNL1 0.000
    56 C       1.105132     0.340171     1.845010 C          1 UNL1 0.000
    57 C       1.145404    -0.773703     2.694079 C          1 UNL1 0.000
    58 C       1.872227    -0.763016     3.892527 C          1 UNL1 0.000
    59 C       2.560380     0.408811     4.223841 C          1 UNL1 0.000
    60 C       2.536655     1.545972     3.418197 C          1 UNL1 0.000
    61 C       1.799682     1.508551     2.218759 C          1 UNL1 0.000
    62 N       3.352278     0.702461     5.310933 N          1 UNL1 0.000
    63 C       3.822877     1.985853     5.223399 C          1 UNL1 0.000
    64 C       3.329508     2.535562     4.061722 C          1 UNL1 0.000
    65 H       0.613721    -1.682174     2.415260 H          1 UNL1 0.000
    66 H       1.901212    -1.639604     4.531380 H          1 UNL1 0.000
    67 H       1.771171     2.389479     1.582395 H          1 UNL1 0.000
    68 H       3.555998     0.056935     6.062315 H          1 UNL1 0.000
    69 H       4.465553     2.395960     5.990286 H          1 UNL1 0.000
    70 H       3.521045     3.539718     3.707354 H          1 UNL1 0.000
@<TRIPOS>BOND
     1      1      2   2
     2      2      3   1
     3      3      4   2
     4      4      5   1
     5      5      6   2
     6      6      1   1
     7      4      7   1
     8      7      8   1
     9      8      9   2
    10      9     10   1
    11     10     11   2
    12     11     12   1
    13     12     13   2
    14     13      8   1
    15     25     26   2
    16     24     25   1
    17     23     24   2
    18     22     23   1
    19     21     22   2
    20     21     26   1
    21     19     20   2
    22     18     19   1
    23     17     18   2
    24     16     17   1
    25     15     16   2
    26     15     20   1
    27     14     15   1
    28     14     21   1
    29     11     14   1
    30     27     28   2
    31     28     29   1
    32     29     30   2
    33     30     31   1
    34     31     32   2
    35     32     27   1
    36      7     27   1
    37      1     33   1
    38      2     34   1
    39      3     35   1
    40      5     36   1
    41      6     37   1
    42      9     38   1
    43     10     39   1
    44     12     40   1
    45     13     41   1
    46     16     42   1
    47     17     43   1
    48     18     44   1
    49     19     45   1
    50     20     46   1
    51     22     47   1
    52     23     48   1
    53     24     49   1
    54     25     50   1
    55     26     51   1
    56     28     52   1
    57     29     53   1
    58     30     54   1
    59     32     55   1
    60     56     57   2
    61     57     58   1
    62     58     59   2
    63     59     60   1
    64     60     61   2
    65     61     56   1
    66     59     62   1
    67     62     63   1
    68     63     64   2
    69     64     60   1
    70     57     65   1
    71     58     66   1
    72     61     67   1
    73     62     68   1
    74     63     69   1
    75     64     70   1
    76     31     56   1
