# Produced with molli package
@<TRIPOS>MOLECULE
J_9_T
69 74 0 0 0
SMALL
USER_CHARGES

@<TRIPOS>ATOM
     1 C      -5.163101     4.200324    -1.081318 C          1 UNL1 0.000
     2 C      -5.749074     3.063825    -1.631547 C          1 UNL1 0.000
     3 C      -5.113890     1.821668    -1.521858 C          1 UNL1 0.000
     4 C      -3.887842     1.684956    -0.847280 C          1 UNL1 0.000
     5 C      -3.308742     2.854680    -0.316250 C          1 UNL1 0.000
     6 C      -3.940100     4.097283    -0.428023 C          1 UNL1 0.000
     7 N      -3.221305     0.406765    -0.730125 N          1 UNL1 0.000
     8 C      -3.931432    -0.849662    -0.689654 C          1 UNL1 0.000
     9 C      -5.181414    -0.965537    -0.057800 C          1 UNL1 0.000
    10 C      -5.884720    -2.177136    -0.051360 C          1 UNL1 0.000
    11 C      -5.356701    -3.315481    -0.676407 C          1 UNL1 0.000
    12 C      -4.095018    -3.220139    -1.276185 C          1 UNL1 0.000
    13 C      -3.389825    -2.010949    -1.270546 C          1 UNL1 0.000
    14 N      -6.093071    -4.553994    -0.703168 N          1 UNL1 0.000
    15 C      -6.588121    -5.099087     0.540153 C          1 UNL1 0.000
    16 C      -5.849719    -4.960082     1.730750 C          1 UNL1 0.000
    17 C      -6.318069    -5.479729     2.940351 C          1 UNL1 0.000
    18 C      -7.536350    -6.151766     2.983310 C          1 UNL1 0.000
    19 C      -8.288036    -6.296754     1.820513 C          1 UNL1 0.000
    20 C      -7.821936    -5.769956     0.611657 C          1 UNL1 0.000
    21 C      -6.323375    -5.209940    -1.972067 C          1 UNL1 0.000
    22 C      -6.383296    -6.611476    -2.077894 C          1 UNL1 0.000
    23 C      -6.618262    -7.235268    -3.308155 C          1 UNL1 0.000
    24 C      -6.782550    -6.471956    -4.460272 C          1 UNL1 0.000
    25 C      -6.711219    -5.083957    -4.385173 C          1 UNL1 0.000
    26 C      -6.485722    -4.461435    -3.153843 C          1 UNL1 0.000
    27 C      -1.784754     0.388729    -0.728101 C          1 UNL1 0.000
    28 C      -1.075092     0.536754    -1.928159 C          1 UNL1 0.000
    29 C       0.317666     0.536353    -1.924248 C          1 UNL1 0.000
    30 C       1.009661     0.429850    -0.716247 C          1 UNL1 0.000
    31 C       0.321789     0.314634     0.502575 C          1 UNL1 0.000
    32 C      -1.080067     0.264752     0.479858 C          1 UNL1 0.000
    33 H      -5.655135     5.165395    -1.167765 H          1 UNL1 0.000
    34 H      -6.698553     3.141446    -2.154381 H          1 UNL1 0.000
    35 H      -5.582783     0.961710    -1.993450 H          1 UNL1 0.000
    36 H      -2.358598     2.812403     0.209154 H          1 UNL1 0.000
    37 H      -3.471951     4.980975    -0.002036 H          1 UNL1 0.000
    38 H      -5.623315    -0.109962     0.447517 H          1 UNL1 0.000
    39 H      -6.860320    -2.222479     0.426722 H          1 UNL1 0.000
    40 H      -3.647794    -4.093797    -1.744745 H          1 UNL1 0.000
    41 H      -2.417588    -1.988975    -1.754785 H          1 UNL1 0.000
    42 H      -4.885940    -4.455302     1.722800 H          1 UNL1 0.000
    43 H      -5.727504    -5.360407     3.844610 H          1 UNL1 0.000
    44 H      -7.899879    -6.558797     3.923066 H          1 UNL1 0.000
    45 H      -9.242706    -6.815799     1.851604 H          1 UNL1 0.000
    46 H      -8.442208    -5.874130    -0.274862 H          1 UNL1 0.000
    47 H      -6.231644    -7.235677    -1.201139 H          1 UNL1 0.000
    48 H      -6.667581    -8.319976    -3.363476 H          1 UNL1 0.000
    49 H      -6.962982    -6.956739    -5.416094 H          1 UNL1 0.000
    50 H      -6.834818    -4.481897    -5.281203 H          1 UNL1 0.000
    51 H      -6.454979    -3.374425    -3.124536 H          1 UNL1 0.000
    52 H      -1.615604     0.641838    -2.865481 H          1 UNL1 0.000
    53 H       0.864525     0.638507    -2.857618 H          1 UNL1 0.000
    54 H       2.097481     0.467072    -0.723797 H          1 UNL1 0.000
    55 H      -1.636350     0.170772     1.410328 H          1 UNL1 0.000
    56 C       1.055506     0.317936     1.772029 C          1 UNL1 0.000
    57 C       1.830639    -0.778464     2.170410 C          1 UNL1 0.000
    58 C       2.558865    -0.743194     3.364606 C          1 UNL1 0.000
    59 C       2.521288     0.388212     4.187310 C          1 UNL1 0.000
    60 C       1.754808     1.488572     3.791982 C          1 UNL1 0.000
    61 C       1.024887     1.449799     2.601246 C          1 UNL1 0.000
    62 C       3.340780     0.453056     5.441810 C          1 UNL1 0.000
    63 H       1.874290    -1.669556     1.547867 H          1 UNL1 0.000
    64 H       3.158861    -1.606053     3.644316 H          1 UNL1 0.000
    65 H       1.725516     2.387424     4.403660 H          1 UNL1 0.000
    66 H       0.443161     2.321991     2.309495 H          1 UNL1 0.000
    67 H       2.799298     0.986448     6.230228 H          1 UNL1 0.000
    68 H       4.284228     0.971885     5.244936 H          1 UNL1 0.000
    69 H       3.564267    -0.549557     5.820549 H          1 UNL1 0.000
@<TRIPOS>BOND
     1      1      2   2
     2      2      3   1
     3      3      4   2
     4      4      5   1
     5      5      6   2
     6      6      1   1
     7      4      7   1
     8      7      8   1
     9      8      9   2
    10      9     10   1
    11     10     11   2
    12     11     12   1
    13     12     13   2
    14     13      8   1
    15     25     26   2
    16     24     25   1
    17     23     24   2
    18     22     23   1
    19     21     22   2
    20     21     26   1
    21     19     20   2
    22     18     19   1
    23     17     18   2
    24     16     17   1
    25     15     16   2
    26     15     20   1
    27     14     15   1
    28     14     21   1
    29     11     14   1
    30     27     28   2
    31     28     29   1
    32     29     30   2
    33     30     31   1
    34     31     32   2
    35     32     27   1
    36      7     27   1
    37      1     33   1
    38      2     34   1
    39      3     35   1
    40      5     36   1
    41      6     37   1
    42      9     38   1
    43     10     39   1
    44     12     40   1
    45     13     41   1
    46     16     42   1
    47     17     43   1
    48     18     44   1
    49     19     45   1
    50     20     46   1
    51     22     47   1
    52     23     48   1
    53     24     49   1
    54     25     50   1
    55     26     51   1
    56     28     52   1
    57     29     53   1
    58     30     54   1
    59     32     55   1
    60     56     57   2
    61     57     58   1
    62     58     59   2
    63     59     60   1
    64     60     61   2
    65     61     56   1
    66     59     62   1
    67     57     63   1
    68     58     64   1
    69     60     65   1
    70     61     66   1
    71     62     67   1
    72     62     68   1
    73     62     69   1
    74     31     56   1
