# Produced with molli package
@<TRIPOS>MOLECULE
J_9_O
65 70 0 0 0
SMALL
USER_CHARGES

@<TRIPOS>ATOM
     1 C      -5.258100     4.137852    -0.357485 C          1 UNL1 0.000
     2 C      -5.881677     2.991657     0.125923 C          1 UNL1 0.000
     3 C      -5.236227     1.752015     0.046598 C          1 UNL1 0.000
     4 C      -3.962746     1.625464    -0.536780 C          1 UNL1 0.000
     5 C      -3.346885     2.806373    -0.997689 C          1 UNL1 0.000
     6 C      -3.986490     4.047164    -0.912474 C          1 UNL1 0.000
     7 N      -3.292187     0.348036    -0.638194 N          1 UNL1 0.000
     8 C      -3.993586    -0.911781    -0.715033 C          1 UNL1 0.000
     9 C      -5.213078    -1.037973    -1.401844 C          1 UNL1 0.000
    10 C      -5.904226    -2.256438    -1.438753 C          1 UNL1 0.000
    11 C      -5.392386    -3.390413    -0.792386 C          1 UNL1 0.000
    12 C      -4.154715    -3.285282    -0.144711 C          1 UNL1 0.000
    13 C      -3.464464    -2.069042    -0.114748 C          1 UNL1 0.000
    14 N      -6.127369    -4.630501    -0.775538 N          1 UNL1 0.000
    15 C      -6.382696    -5.275218     0.495664 C          1 UNL1 0.000
    16 C      -6.557748    -4.513573     1.668513 C          1 UNL1 0.000
    17 C      -6.793900    -5.122169     2.904550 C          1 UNL1 0.000
    18 C      -6.868752    -6.508219     2.994004 C          1 UNL1 0.000
    19 C      -6.696881    -7.284557     1.850995 C          1 UNL1 0.000
    20 C      -6.447394    -6.674536     0.616438 C          1 UNL1 0.000
    21 C      -6.588315    -5.191021    -2.025490 C          1 UNL1 0.000
    22 C      -7.809498    -5.881444    -2.119208 C          1 UNL1 0.000
    23 C      -8.238902    -6.430895    -3.331813 C          1 UNL1 0.000
    24 C      -7.462708    -6.286655    -4.478746 C          1 UNL1 0.000
    25 C      -6.258268    -5.592610    -4.415497 C          1 UNL1 0.000
    26 C      -5.825834    -5.051754    -3.201282 C          1 UNL1 0.000
    27 C      -1.855372     0.324484    -0.647189 C          1 UNL1 0.000
    28 C      -1.163481     0.136261    -1.851695 C          1 UNL1 0.000
    29 C       0.229332     0.141679    -1.866807 C          1 UNL1 0.000
    30 C       0.939012     0.305826    -0.675369 C          1 UNL1 0.000
    31 C       0.270376     0.466230     0.551701 C          1 UNL1 0.000
    32 C      -1.133325     0.489123     0.544765 C          1 UNL1 0.000
    33 H      -5.758218     5.100524    -0.294859 H          1 UNL1 0.000
    34 H      -6.870117     3.058650     0.572968 H          1 UNL1 0.000
    35 H      -5.739200     0.885460     0.467813 H          1 UNL1 0.000
    36 H      -2.358236     2.775777    -1.448124 H          1 UNL1 0.000
    37 H      -3.487489     4.938498    -1.283410 H          1 UNL1 0.000
    38 H      -5.640779    -0.185240    -1.923325 H          1 UNL1 0.000
    39 H      -6.860852    -2.309117    -1.953091 H          1 UNL1 0.000
    40 H      -3.718459    -4.154237     0.342529 H          1 UNL1 0.000
    41 H      -2.515657    -2.036050     0.415478 H          1 UNL1 0.000
    42 H      -6.522501    -3.427237     1.629281 H          1 UNL1 0.000
    43 H      -6.920143    -4.509151     3.793108 H          1 UNL1 0.000
    44 H      -7.056200    -6.982345     3.953743 H          1 UNL1 0.000
    45 H      -6.748885    -8.368084     1.918013 H          1 UNL1 0.000
    46 H      -6.285632    -7.309721    -0.250840 H          1 UNL1 0.000
    47 H      -8.449028    -5.986526    -1.246247 H          1 UNL1 0.000
    48 H      -9.182827    -6.967607    -3.378198 H          1 UNL1 0.000
    49 H      -7.797035    -6.712108    -5.421247 H          1 UNL1 0.000
    50 H      -5.648918    -5.473560    -5.307517 H          1 UNL1 0.000
    51 H      -4.870660    -4.532067    -3.177306 H          1 UNL1 0.000
    52 H      -1.717416     0.002408    -2.776886 H          1 UNL1 0.000
    53 H       0.762409     0.005185    -2.804199 H          1 UNL1 0.000
    54 H       2.026514     0.275560    -0.701442 H          1 UNL1 0.000
    55 H      -1.673863     0.606966     1.482854 H          1 UNL1 0.000
    56 C       1.013756     0.568575     1.810051 C          1 UNL1 0.000
    57 N       0.758190    -0.406927     2.720710 N          1 UNL1 0.000
    58 C       1.451757    -0.376292     3.876994 C          1 UNL1 0.000
    59 C       2.388832     0.592835     4.191148 C          1 UNL1 0.000
    60 C       2.629295     1.595659     3.257234 C          1 UNL1 0.000
    61 C       1.937974     1.582476     2.050250 C          1 UNL1 0.000
    62 H       1.228845    -1.183829     4.570275 H          1 UNL1 0.000
    63 H       2.915864     0.568405     5.136567 H          1 UNL1 0.000
    64 H       3.351115     2.379019     3.468898 H          1 UNL1 0.000
    65 H       2.112388     2.358611     1.310175 H          1 UNL1 0.000
@<TRIPOS>BOND
     1      1      2   2
     2      2      3   1
     3      3      4   2
     4      4      5   1
     5      5      6   2
     6      6      1   1
     7      4      7   1
     8      7      8   1
     9      8      9   2
    10      9     10   1
    11     10     11   2
    12     11     12   1
    13     12     13   2
    14     13      8   1
    15     25     26   2
    16     24     25   1
    17     23     24   2
    18     22     23   1
    19     21     22   2
    20     21     26   1
    21     19     20   2
    22     18     19   1
    23     17     18   2
    24     16     17   1
    25     15     16   2
    26     15     20   1
    27     14     15   1
    28     14     21   1
    29     11     14   1
    30     27     28   2
    31     28     29   1
    32     29     30   2
    33     30     31   1
    34     31     32   2
    35     32     27   1
    36      7     27   1
    37      1     33   1
    38      2     34   1
    39      3     35   1
    40      5     36   1
    41      6     37   1
    42      9     38   1
    43     10     39   1
    44     12     40   1
    45     13     41   1
    46     16     42   1
    47     17     43   1
    48     18     44   1
    49     19     45   1
    50     20     46   1
    51     22     47   1
    52     23     48   1
    53     24     49   1
    54     25     50   1
    55     26     51   1
    56     28     52   1
    57     29     53   1
    58     30     54   1
    59     32     55   1
    60     56     57   2
    61     57     58   1
    62     58     59   2
    63     59     60   1
    64     60     61   2
    65     61     56   1
    66     58     62   1
    67     59     63   1
    68     60     64   1
    69     61     65   1
    70     31     56   1
