# Produced with molli package
@<TRIPOS>MOLECULE
J_9_S
71 76 0 0 0
SMALL
USER_CHARGES

@<TRIPOS>ATOM
     1 C      -5.159216     4.284575    -0.936804 C          1 UNL1 0.000
     2 C      -5.827433     3.162373    -1.414184 C          1 UNL1 0.000
     3 C      -5.220853     1.899531    -1.359645 C          1 UNL1 0.000
     4 C      -3.958940     1.712674    -0.771593 C          1 UNL1 0.000
     5 C      -3.295935     2.878743    -0.325507 C          1 UNL1 0.000
     6 C      -3.882162     4.146122    -0.410710 C          1 UNL1 0.000
     7 N      -3.320074     0.411655    -0.654673 N          1 UNL1 0.000
     8 C      -4.016870    -0.862423    -0.609269 C          1 UNL1 0.000
     9 C      -5.378285    -0.974906    -0.280909 C          1 UNL1 0.000
    10 C      -6.057294    -2.200385    -0.351269 C          1 UNL1 0.000
    11 C      -5.369676    -3.384541    -0.637186 C          1 UNL1 0.000
    12 C      -3.992929    -3.312919    -0.861350 C          1 UNL1 0.000
    13 C      -3.337954    -2.072978    -0.873342 C          1 UNL1 0.000
    14 N      -6.060096    -4.647860    -0.672506 N          1 UNL1 0.000
    15 C      -6.335495    -5.318031     0.589187 C          1 UNL1 0.000
    16 C      -6.369161    -4.611046     1.809821 C          1 UNL1 0.000
    17 C      -6.683835    -5.235470     3.022299 C          1 UNL1 0.000
    18 C      -6.957859    -6.595764     3.053130 C          1 UNL1 0.000
    19 C      -6.875679    -7.335187     1.878890 C          1 UNL1 0.000
    20 C      -6.544621    -6.707438     0.669984 C          1 UNL1 0.000
    21 C      -6.494038    -5.153841    -1.966468 C          1 UNL1 0.000
    22 C      -7.628342    -5.975964    -2.107669 C          1 UNL1 0.000
    23 C      -8.015954    -6.495177    -3.350894 C          1 UNL1 0.000
    24 C      -7.304846    -6.167181    -4.499122 C          1 UNL1 0.000
    25 C      -6.217303    -5.308698    -4.405158 C          1 UNL1 0.000
    26 C      -5.822384    -4.807700    -3.157841 C          1 UNL1 0.000
    27 C      -1.877942     0.398007    -0.671915 C          1 UNL1 0.000
    28 C      -1.193267     0.513624    -1.891021 C          1 UNL1 0.000
    29 C       0.198590     0.546463    -1.912729 C          1 UNL1 0.000
    30 C       0.913598     0.493806    -0.714943 C          1 UNL1 0.000
    31 C       0.250673     0.396155     0.519446 C          1 UNL1 0.000
    32 C      -1.150233     0.322961     0.527786 C          1 UNL1 0.000
    33 H      -5.625312     5.264680    -0.988623 H          1 UNL1 0.000
    34 H      -6.821094     3.266006    -1.842690 H          1 UNL1 0.000
    35 H      -5.756617     1.070252    -1.811262 H          1 UNL1 0.000
    36 H      -2.300702     2.822705     0.106954 H          1 UNL1 0.000
    37 H      -3.336342     5.018413    -0.060902 H          1 UNL1 0.000
    38 H      -5.949316    -0.112615     0.048728 H          1 UNL1 0.000
    39 H      -7.124288    -2.234956    -0.143459 H          1 UNL1 0.000
    40 H      -3.428297    -4.220850    -1.059251 H          1 UNL1 0.000
    41 H      -2.275784    -2.080592    -1.104234 H          1 UNL1 0.000
    42 H      -6.163075    -3.546678     1.851904 H          1 UNL1 0.000
    43 H      -6.715855    -4.649285     3.937144 H          1 UNL1 0.000
    44 H      -7.216956    -7.079113     3.990970 H          1 UNL1 0.000
    45 H      -7.063632    -8.405505     1.898755 H          1 UNL1 0.000
    46 H      -6.442180    -7.336275    -0.210242 H          1 UNL1 0.000
    47 H      -8.248686    -6.217768    -1.249080 H          1 UNL1 0.000
    48 H      -8.880779    -7.150314    -3.417629 H          1 UNL1 0.000
    49 H      -7.605013    -6.566209    -5.464270 H          1 UNL1 0.000
    50 H      -5.667485    -5.025260    -5.299173 H          1 UNL1 0.000
    51 H      -4.962607    -4.145814    -3.146808 H          1 UNL1 0.000
    52 H      -1.753401     0.576773    -2.820670 H          1 UNL1 0.000
    53 H       0.725995     0.631360    -2.859060 H          1 UNL1 0.000
    54 H       2.000445     0.550091    -0.744660 H          1 UNL1 0.000
    55 H      -1.688527     0.249379     1.470456 H          1 UNL1 0.000
    56 C       1.013489     0.429093     1.769339 C          1 UNL1 0.000
    57 C       1.645169    -0.716533     2.263660 C          1 UNL1 0.000
    58 C       2.404927    -0.659526     3.437697 C          1 UNL1 0.000
    59 C       2.551420     0.544286     4.144258 C          1 UNL1 0.000
    60 C       1.922227     1.691612     3.653532 C          1 UNL1 0.000
    61 C       1.158141     1.629956     2.480344 C          1 UNL1 0.000
    62 C       3.394522     0.525689     5.381566 C          1 UNL1 0.000
    63 C       3.458976     1.720420     6.300945 C          1 UNL1 0.000
    64 O       4.035305    -0.487450     5.654677 O          1 UNL1 0.000
    65 H       1.555033    -1.663179     1.734339 H          1 UNL1 0.000
    66 H       2.888714    -1.567431     3.795336 H          1 UNL1 0.000
    67 H       2.011644     2.656622     4.139425 H          1 UNL1 0.000
    68 H       0.684294     2.537792     2.109178 H          1 UNL1 0.000
    69 H       3.092371     1.419646     7.286862 H          1 UNL1 0.000
    70 H       2.865681     2.571660     5.975167 H          1 UNL1 0.000
    71 H       4.500725     2.044383     6.381952 H          1 UNL1 0.000
@<TRIPOS>BOND
     1      1      2   2
     2      2      3   1
     3      3      4   2
     4      4      5   1
     5      5      6   2
     6      6      1   1
     7      4      7   1
     8      7      8   1
     9      8      9   2
    10      9     10   1
    11     10     11   2
    12     11     12   1
    13     12     13   2
    14     13      8   1
    15     25     26   2
    16     24     25   1
    17     23     24   2
    18     22     23   1
    19     21     22   2
    20     21     26   1
    21     19     20   2
    22     18     19   1
    23     17     18   2
    24     16     17   1
    25     15     16   2
    26     15     20   1
    27     14     15   1
    28     14     21   1
    29     11     14   1
    30     27     28   2
    31     28     29   1
    32     29     30   2
    33     30     31   1
    34     31     32   2
    35     32     27   1
    36      7     27   1
    37      1     33   1
    38      2     34   1
    39      3     35   1
    40      5     36   1
    41      6     37   1
    42      9     38   1
    43     10     39   1
    44     12     40   1
    45     13     41   1
    46     16     42   1
    47     17     43   1
    48     18     44   1
    49     19     45   1
    50     20     46   1
    51     22     47   1
    52     23     48   1
    53     24     49   1
    54     25     50   1
    55     26     51   1
    56     28     52   1
    57     29     53   1
    58     30     54   1
    59     32     55   1
    60     56     57   2
    61     57     58   1
    62     58     59   2
    63     59     60   1
    64     60     61   2
    65     61     56   1
    66     59     62   1
    67     62     63   1
    68     62     64   2
    69     57     65   1
    70     58     66   1
    71     60     67   1
    72     61     68   1
    73     63     69   1
    74     63     70   1
    75     63     71   1
    76     31     56   1
