# Produced with molli package
@<TRIPOS>MOLECULE
J_9_P
70 75 0 0 0
SMALL
USER_CHARGES

@<TRIPOS>ATOM
     1 C      -5.199895     4.315084    -0.956740 C          1 UNL1 0.000
     2 C      -5.789973     3.211189    -1.565332 C          1 UNL1 0.000
     3 C      -5.180954     1.951919    -1.487241 C          1 UNL1 0.000
     4 C      -3.994211     1.755421    -0.762483 C          1 UNL1 0.000
     5 C      -3.405619     2.899489    -0.181136 C          1 UNL1 0.000
     6 C      -3.998473     4.162535    -0.276926 C          1 UNL1 0.000
     7 N      -3.356347     0.459040    -0.640911 N          1 UNL1 0.000
     8 C      -4.061467    -0.809507    -0.607967 C          1 UNL1 0.000
     9 C      -5.436577    -0.906417    -0.333903 C          1 UNL1 0.000
    10 C      -6.115674    -2.132846    -0.389937 C          1 UNL1 0.000
    11 C      -5.420914    -3.323255    -0.627734 C          1 UNL1 0.000
    12 C      -4.038437    -3.261960    -0.809813 C          1 UNL1 0.000
    13 C      -3.377861    -2.026523    -0.823044 C          1 UNL1 0.000
    14 N      -6.110922    -4.584013    -0.658577 N          1 UNL1 0.000
    15 C      -6.339455    -5.284141     0.590857 C          1 UNL1 0.000
    16 C      -6.373032    -4.605724     1.823864 C          1 UNL1 0.000
    17 C      -6.618028    -5.274013     3.028501 C          1 UNL1 0.000
    18 C      -6.821918    -6.650166     3.031577 C          1 UNL1 0.000
    19 C      -6.755308    -7.354822     1.836667 C          1 UNL1 0.000
    20 C      -6.502031    -6.683666     0.633933 C          1 UNL1 0.000
    21 C      -6.565348    -5.085686    -1.940302 C          1 UNL1 0.000
    22 C      -7.767445    -5.811127    -2.060490 C          1 UNL1 0.000
    23 C      -8.191083    -6.324540    -3.292411 C          1 UNL1 0.000
    24 C      -7.439076    -6.102300    -4.439532 C          1 UNL1 0.000
    25 C      -6.269294    -5.352858    -4.359257 C          1 UNL1 0.000
    26 C      -5.845022    -4.846638    -3.125325 C          1 UNL1 0.000
    27 C      -1.916194     0.444241    -0.648118 C          1 UNL1 0.000
    28 C      -1.221637     0.529234    -1.863552 C          1 UNL1 0.000
    29 C       0.170466     0.518194    -1.877281 C          1 UNL1 0.000
    30 C       0.877565     0.455788    -0.674496 C          1 UNL1 0.000
    31 C       0.205367     0.397285     0.557670 C          1 UNL1 0.000
    32 C      -1.196935     0.364649     0.555504 C          1 UNL1 0.000
    33 H      -5.669008     5.293094    -1.022424 H          1 UNL1 0.000
    34 H      -6.722262     3.328045    -2.111301 H          1 UNL1 0.000
    35 H      -5.645819     1.129235    -2.023806 H          1 UNL1 0.000
    36 H      -2.473403     2.823450     0.371291 H          1 UNL1 0.000
    37 H      -3.517529     5.021183     0.184803 H          1 UNL1 0.000
    38 H      -6.016410    -0.030083    -0.059994 H          1 UNL1 0.000
    39 H      -7.188256    -2.161247    -0.214017 H          1 UNL1 0.000
    40 H      -3.471392    -4.175822    -0.969302 H          1 UNL1 0.000
    41 H      -2.307913    -2.042804    -1.012164 H          1 UNL1 0.000
    42 H      -6.222154    -3.530867     1.877546 H          1 UNL1 0.000
    43 H      -6.649774    -4.715147     3.959089 H          1 UNL1 0.000
    44 H      -7.019053    -7.168827     3.965681 H          1 UNL1 0.000
    45 H      -6.893910    -8.433798     1.833446 H          1 UNL1 0.000
    46 H      -6.417662    -7.277840    -0.270996 H          1 UNL1 0.000
    47 H      -8.398955    -5.974728    -1.191964 H          1 UNL1 0.000
    48 H      -9.115067    -6.895529    -3.350612 H          1 UNL1 0.000
    49 H      -7.765146    -6.501791    -5.396068 H          1 UNL1 0.000
    50 H      -5.681463    -5.162838    -5.252687 H          1 UNL1 0.000
    51 H      -4.920405    -4.276607    -3.112340 H          1 UNL1 0.000
    52 H      -1.774423     0.593934    -2.797551 H          1 UNL1 0.000
    53 H       0.705682     0.575074    -2.821305 H          1 UNL1 0.000
    54 H       1.965261     0.481144    -0.699571 H          1 UNL1 0.000
    55 H      -1.743321     0.308786     1.495041 H          1 UNL1 0.000
    56 C       0.957338     0.430544     1.816942 C          1 UNL1 0.000
    57 C       1.779633    -0.638155     2.202959 C          1 UNL1 0.000
    58 C       2.523221    -0.577131     3.385779 C          1 UNL1 0.000
    59 C       2.460778     0.564948     4.182297 C          1 UNL1 0.000
    60 C       1.624808     1.620289     3.836199 C          1 UNL1 0.000
    61 C       0.882732     1.556754     2.654995 C          1 UNL1 0.000
    62 O       3.159779     0.663017     5.354220 O          1 UNL1 0.000
    63 C       4.564377     0.726283     5.107704 C          1 UNL1 0.000
    64 H       1.837609    -1.532347     1.585458 H          1 UNL1 0.000
    65 H       3.134524    -1.423368     3.681801 H          1 UNL1 0.000
    66 H       1.559855     2.496892     4.474525 H          1 UNL1 0.000
    67 H       0.252467     2.399930     2.381182 H          1 UNL1 0.000
    68 H       5.059021     0.967763     6.053333 H          1 UNL1 0.000
    69 H       4.807271     1.517127     4.388455 H          1 UNL1 0.000
    70 H       4.951049    -0.237887     4.762397 H          1 UNL1 0.000
@<TRIPOS>BOND
     1      1      2   2
     2      2      3   1
     3      3      4   2
     4      4      5   1
     5      5      6   2
     6      6      1   1
     7      4      7   1
     8      7      8   1
     9      8      9   2
    10      9     10   1
    11     10     11   2
    12     11     12   1
    13     12     13   2
    14     13      8   1
    15     25     26   2
    16     24     25   1
    17     23     24   2
    18     22     23   1
    19     21     22   2
    20     21     26   1
    21     19     20   2
    22     18     19   1
    23     17     18   2
    24     16     17   1
    25     15     16   2
    26     15     20   1
    27     14     15   1
    28     14     21   1
    29     11     14   1
    30     27     28   2
    31     28     29   1
    32     29     30   2
    33     30     31   1
    34     31     32   2
    35     32     27   1
    36      7     27   1
    37      1     33   1
    38      2     34   1
    39      3     35   1
    40      5     36   1
    41      6     37   1
    42      9     38   1
    43     10     39   1
    44     12     40   1
    45     13     41   1
    46     16     42   1
    47     17     43   1
    48     18     44   1
    49     19     45   1
    50     20     46   1
    51     22     47   1
    52     23     48   1
    53     24     49   1
    54     25     50   1
    55     26     51   1
    56     28     52   1
    57     29     53   1
    58     30     54   1
    59     32     55   1
    60     56     57   2
    61     57     58   1
    62     58     59   2
    63     59     60   1
    64     60     61   2
    65     61     56   1
    66     62     63   1
    67     59     62   1
    68     57     64   1
    69     58     65   1
    70     60     66   1
    71     61     67   1
    72     63     68   1
    73     63     69   1
    74     63     70   1
    75     31     56   1
