# Produced with molli package
@<TRIPOS>MOLECULE
J_9_K
68 73 0 0 0
SMALL
USER_CHARGES

@<TRIPOS>ATOM
     1 C      -5.308802     4.196887    -0.878983 C          1 UNL1 0.000
     2 C      -5.904460     3.062161    -1.421726 C          1 UNL1 0.000
     3 C      -5.258533     1.822644    -1.346169 C          1 UNL1 0.000
     4 C      -4.013135     1.685273    -0.708141 C          1 UNL1 0.000
     5 C      -3.425277     2.854753    -0.184745 C          1 UNL1 0.000
     6 C      -4.065044     4.095238    -0.266287 C          1 UNL1 0.000
     7 N      -3.333875     0.409856    -0.620441 N          1 UNL1 0.000
     8 C      -4.028239    -0.856336    -0.586120 C          1 UNL1 0.000
     9 C      -5.283285    -0.990302     0.033577 C          1 UNL1 0.000
    10 C      -5.974102    -2.208556     0.025615 C          1 UNL1 0.000
    11 C      -5.424459    -3.337236    -0.596609 C          1 UNL1 0.000
    12 C      -4.156450    -3.228467    -1.179900 C          1 UNL1 0.000
    13 C      -3.466011    -2.010900    -1.162582 C          1 UNL1 0.000
    14 N      -6.147819    -4.582685    -0.639189 N          1 UNL1 0.000
    15 C      -6.569497    -5.181222     0.609215 C          1 UNL1 0.000
    16 C      -5.811111    -5.000685     1.783928 C          1 UNL1 0.000
    17 C      -6.206728    -5.560076     3.002275 C          1 UNL1 0.000
    18 C      -7.367637    -6.322382     3.072305 C          1 UNL1 0.000
    19 C      -8.138376    -6.512745     1.928718 C          1 UNL1 0.000
    20 C      -7.749538    -5.937903     0.713210 C          1 UNL1 0.000
    21 C      -6.446474    -5.166893    -1.930432 C          1 UNL1 0.000
    22 C      -6.542181    -6.557301    -2.115313 C          1 UNL1 0.000
    23 C      -6.853224    -7.104329    -3.366082 C          1 UNL1 0.000
    24 C      -7.049829    -6.273229    -4.465500 C          1 UNL1 0.000
    25 C      -6.933804    -4.895494    -4.316898 C          1 UNL1 0.000
    26 C      -6.638398    -4.350079    -3.063686 C          1 UNL1 0.000
    27 C      -1.896746     0.411275    -0.643851 C          1 UNL1 0.000
    28 C      -1.211658     0.600152    -1.852701 C          1 UNL1 0.000
    29 C       0.180143     0.650131    -1.870418 C          1 UNL1 0.000
    30 C       0.894199     0.553156    -0.675010 C          1 UNL1 0.000
    31 C       0.229164     0.389114     0.550449 C          1 UNL1 0.000
    32 C      -1.169521     0.286503     0.550586 C          1 UNL1 0.000
    33 H      -5.808930     5.159740    -0.940059 H          1 UNL1 0.000
    34 H      -6.870946     3.139191    -1.912989 H          1 UNL1 0.000
    35 H      -5.736888     0.966718    -1.815013 H          1 UNL1 0.000
    36 H      -2.458957     2.815463     0.310554 H          1 UNL1 0.000
    37 H      -3.587848     4.977880     0.151445 H          1 UNL1 0.000
    38 H      -5.741811    -0.143503     0.538510 H          1 UNL1 0.000
    39 H      -6.955749    -2.268929     0.489737 H          1 UNL1 0.000
    40 H      -3.697000    -4.097103    -1.645712 H          1 UNL1 0.000
    41 H      -2.488545    -1.977272    -1.635907 H          1 UNL1 0.000
    42 H      -4.888089    -4.425892     1.760332 H          1 UNL1 0.000
    43 H      -5.603259    -5.399514     3.891812 H          1 UNL1 0.000
    44 H      -7.673459    -6.763006     4.017475 H          1 UNL1 0.000
    45 H      -9.049434    -7.103200     1.980643 H          1 UNL1 0.000
    46 H      -8.394516    -6.076452    -0.150651 H          1 UNL1 0.000
    47 H      -6.362546    -7.237145    -1.286369 H          1 UNL1 0.000
    48 H      -6.936635    -8.182138    -3.479645 H          1 UNL1 0.000
    49 H      -7.288611    -6.698194    -5.436915 H          1 UNL1 0.000
    50 H      -7.077538    -4.239668    -5.171664 H          1 UNL1 0.000
    51 H      -6.575835    -3.267665    -2.979737 H          1 UNL1 0.000
    52 H      -1.770697     0.704409    -2.779362 H          1 UNL1 0.000
    53 H       0.707319     0.786710    -2.810875 H          1 UNL1 0.000
    54 H       1.979815     0.628956    -0.699342 H          1 UNL1 0.000
    55 H      -1.708711     0.165557     1.487932 H          1 UNL1 0.000
    56 C       0.980804     0.402901     1.806957 C          1 UNL1 0.000
    57 C       1.472760    -0.782271     2.373874 C          1 UNL1 0.000
    58 C       2.210263    -0.752259     3.562259 C          1 UNL1 0.000
    59 C       2.459440     0.476235     4.187468 C          1 UNL1 0.000
    60 C       1.972834     1.668046     3.641545 C          1 UNL1 0.000
    61 C       1.235139     1.624259     2.456452 C          1 UNL1 0.000
    62 N       3.243971     0.514366     5.424423 N          1 UNL1 0.000
    63 O       3.735708     1.604056     5.758414 O          1 UNL1 0.000
    64 O       3.370284    -0.540215     6.059032 O          1 UNL1 0.000
    65 H       1.285922    -1.737246     1.885079 H          1 UNL1 0.000
    66 H       2.586005    -1.684179     3.979119 H          1 UNL1 0.000
    67 H       2.156986     2.628065     4.119474 H          1 UNL1 0.000
    68 H       0.858659     2.553513     2.030256 H          1 UNL1 0.000
@<TRIPOS>BOND
     1      1      2   2
     2      2      3   1
     3      3      4   2
     4      4      5   1
     5      5      6   2
     6      6      1   1
     7      4      7   1
     8      7      8   1
     9      8      9   2
    10      9     10   1
    11     10     11   2
    12     11     12   1
    13     12     13   2
    14     13      8   1
    15     25     26   2
    16     24     25   1
    17     23     24   2
    18     22     23   1
    19     21     22   2
    20     21     26   1
    21     19     20   2
    22     18     19   1
    23     17     18   2
    24     16     17   1
    25     15     16   2
    26     15     20   1
    27     14     15   1
    28     14     21   1
    29     11     14   1
    30     27     28   2
    31     28     29   1
    32     29     30   2
    33     30     31   1
    34     31     32   2
    35     32     27   1
    36      7     27   1
    37      1     33   1
    38      2     34   1
    39      3     35   1
    40      5     36   1
    41      6     37   1
    42      9     38   1
    43     10     39   1
    44     12     40   1
    45     13     41   1
    46     16     42   1
    47     17     43   1
    48     18     44   1
    49     19     45   1
    50     20     46   1
    51     22     47   1
    52     23     48   1
    53     24     49   1
    54     25     50   1
    55     26     51   1
    56     28     52   1
    57     29     53   1
    58     30     54   1
    59     32     55   1
    60     56     57   2
    61     57     58   1
    62     58     59   2
    63     59     60   1
    64     60     61   2
    65     61     56   1
    66     62     63   2
    67     62     64   1
    68     59     62   1
    69     57     65   1
    70     58     66   1
    71     60     67   1
    72     61     68   1
    73     31     56   1
